Created with the Wolfram Language for Students - Personal Use Only : www.wolfram.com
     WL             3D

 87 86  0  0  0  0  0  0  0  0999 V2000
   11.3970   -0.1150    0.0119 C   0  0  0  0  0  0  0  0  0  0  0  0
   10.9860    0.5298   -1.3028 C   0  0  0  0  0  0  0  0  0  0  0  0
    9.6425    1.2604   -1.2301 C   0  0  0  0  0  0  0  0  0  0  0  0
    9.6662    2.4721   -0.2947 C   0  0  0  0  0  0  0  0  0  0  0  0
    8.3939    3.3247   -0.3685 C   0  0  0  0  0  0  0  0  0  0  0  0
    7.0828    2.5970   -0.0464 C   0  0  0  0  0  0  0  0  0  0  0  0
    7.0755    1.9473    1.3409 C   0  0  0  0  0  0  0  0  0  0  0  0
    5.7088    1.3863    1.7516 C   0  0  0  0  0  0  0  0  0  0  0  0
    5.4723   -0.0842    1.3868 C   0  0  0  0  0  0  0  0  0  0  0  0
    5.3200   -0.3415   -0.1132 C   0  0  0  0  0  0  0  0  0  0  0  0
    4.8222   -1.7568   -0.4327 C   0  0  0  0  0  0  0  0  0  0  0  0
    3.3098   -1.8695   -0.6731 C   0  0  0  0  0  0  0  0  0  0  0  0
    2.4572   -1.5607    0.5574 C   0  0  0  0  0  0  0  0  0  0  0  0
    0.9534   -1.7614    0.3370 C   0  0  0  0  0  0  0  0  0  0  0  0
    0.5715   -3.2064    0.0051 C   0  0  0  0  0  0  0  0  0  0  0  0
   -0.9275   -3.4876    0.1555 C   0  0  0  0  0  0  0  0  0  0  0  0
   -1.8057   -2.6463   -0.7743 C   0  0  0  0  0  0  0  0  0  0  0  0
   -3.2739   -3.0883   -0.7755 C   0  0  0  0  0  0  0  0  0  0  0  0
   -3.9816   -3.0366    0.5830 C   0  0  0  0  0  0  0  0  0  0  0  0
   -4.0172   -1.6598    1.2540 C   0  0  0  0  0  0  0  0  0  0  0  0
   -4.7228   -0.5565    0.4589 C   0  0  0  0  0  0  0  0  0  0  0  0
   -6.2086   -0.8409    0.2253 C   0  0  0  0  0  0  0  0  0  0  0  0
   -6.9024    0.3341   -0.4694 C   0  0  0  0  0  0  0  0  0  0  0  0
   -8.3965    0.0574   -0.6547 C   0  0  0  0  0  0  0  0  0  0  0  0
   -9.1266    1.1478   -1.4434 C   0  0  0  0  0  0  0  0  0  0  0  0
   -9.0995    2.5490   -0.8246 C   0  0  0  0  0  0  0  0  0  0  0  0
   -9.6422    2.6531    0.6053 C   0  0  0  0  0  0  0  0  0  0  0  0
  -11.0910    2.2074    0.7660 C   0  0  0  0  0  0  0  0  0  0  0  0
  -11.9338    2.9785   -0.0769 O   0  0  0  0  0  0  0  0  0  0  0  0
   10.6224   -0.7974    0.3751 H   0  0  0  0  0  0  0  0  0  0  0  0
   12.3183   -0.6899   -0.1252 H   0  0  0  0  0  0  0  0  0  0  0  0
   11.5867    0.6346    0.7858 H   0  0  0  0  0  0  0  0  0  0  0  0
   10.9158   -0.2528   -2.0681 H   0  0  0  0  0  0  0  0  0  0  0  0
   11.7698    1.2224   -1.6302 H   0  0  0  0  0  0  0  0  0  0  0  0
    8.8688    0.5524   -0.9121 H   0  0  0  0  0  0  0  0  0  0  0  0
    9.3761    1.5923   -2.2414 H   0  0  0  0  0  0  0  0  0  0  0  0
   10.5183    3.1126   -0.5569 H   0  0  0  0  0  0  0  0  0  0  0  0
    9.8298    2.1501    0.7395 H   0  0  0  0  0  0  0  0  0  0  0  0
    8.3131    3.7555   -1.3748 H   0  0  0  0  0  0  0  0  0  0  0  0
    8.5067    4.1729    0.3188 H   0  0  0  0  0  0  0  0  0  0  0  0
    6.8811    1.8572   -0.8253 H   0  0  0  0  0  0  0  0  0  0  0  0
    6.2693    3.3315   -0.1036 H   0  0  0  0  0  0  0  0  0  0  0  0
    7.3561    2.7160    2.0731 H   0  0  0  0  0  0  0  0  0  0  0  0
    7.8342    1.1596    1.4081 H   0  0  0  0  0  0  0  0  0  0  0  0
    5.6438    1.4531    2.8461 H   0  0  0  0  0  0  0  0  0  0  0  0
    4.8961    2.0098    1.3603 H   0  0  0  0  0  0  0  0  0  0  0  0
    4.5719   -0.4124    1.9158 H   0  0  0  0  0  0  0  0  0  0  0  0
    6.2931   -0.6975    1.7799 H   0  0  0  0  0  0  0  0  0  0  0  0
    4.6641    0.4065   -0.5739 H   0  0  0  0  0  0  0  0  0  0  0  0
    6.3083   -0.2325   -0.5750 H   0  0  0  0  0  0  0  0  0  0  0  0
    5.1345   -2.4639    0.3455 H   0  0  0  0  0  0  0  0  0  0  0  0
    5.3151   -2.0817   -1.3587 H   0  0  0  0  0  0  0  0  0  0  0  0
    3.0190   -1.2059   -1.4970 H   0  0  0  0  0  0  0  0  0  0  0  0
    3.1116   -2.8933   -1.0105 H   0  0  0  0  0  0  0  0  0  0  0  0
    2.7851   -2.1814    1.4001 H   0  0  0  0  0  0  0  0  0  0  0  0
    2.6063   -0.5150    0.8489 H   0  0  0  0  0  0  0  0  0  0  0  0
    0.6121   -1.0924   -0.4623 H   0  0  0  0  0  0  0  0  0  0  0  0
    0.4354   -1.4513    1.2533 H   0  0  0  0  0  0  0  0  0  0  0  0
    0.8800   -3.4474   -1.0189 H   0  0  0  0  0  0  0  0  0  0  0  0
    1.1131   -3.8896    0.6707 H   0  0  0  0  0  0  0  0  0  0  0  0
   -1.2152   -3.3175    1.1994 H   0  0  0  0  0  0  0  0  0  0  0  0
   -1.0985   -4.5509   -0.0517 H   0  0  0  0  0  0  0  0  0  0  0  0
   -1.7409   -1.5873   -0.5028 H   0  0  0  0  0  0  0  0  0  0  0  0
   -1.4242   -2.7288   -1.7997 H   0  0  0  0  0  0  0  0  0  0  0  0
   -3.8246   -2.4769   -1.4999 H   0  0  0  0  0  0  0  0  0  0  0  0
   -3.3294   -4.1180   -1.1503 H   0  0  0  0  0  0  0  0  0  0  0  0
   -5.0053   -3.4079    0.4564 H   0  0  0  0  0  0  0  0  0  0  0  0
   -3.5009   -3.7443    1.2691 H   0  0  0  0  0  0  0  0  0  0  0  0
   -4.5141   -1.7648    2.2268 H   0  0  0  0  0  0  0  0  0  0  0  0
   -2.9939   -1.3345    1.4746 H   0  0  0  0  0  0  0  0  0  0  0  0
   -4.2169   -0.3953   -0.4998 H   0  0  0  0  0  0  0  0  0  0  0  0
   -4.6245    0.3806    1.0215 H   0  0  0  0  0  0  0  0  0  0  0  0
   -6.6985   -1.0371    1.1870 H   0  0  0  0  0  0  0  0  0  0  0  0
   -6.3270   -1.7394   -0.3909 H   0  0  0  0  0  0  0  0  0  0  0  0
   -6.7613    1.2409    0.1293 H   0  0  0  0  0  0  0  0  0  0  0  0
   -6.4348    0.5110   -1.4456 H   0  0  0  0  0  0  0  0  0  0  0  0
   -8.8714   -0.0816    0.3228 H   0  0  0  0  0  0  0  0  0  0  0  0
   -8.5204   -0.8899   -1.1942 H   0  0  0  0  0  0  0  0  0  0  0  0
  -10.1675    0.8358   -1.5882 H   0  0  0  0  0  0  0  0  0  0  0  0
   -8.6905    1.2084   -2.4485 H   0  0  0  0  0  0  0  0  0  0  0  0
   -8.0715    2.9313   -0.8346 H   0  0  0  0  0  0  0  0  0  0  0  0
   -9.6710    3.2223   -1.4758 H   0  0  0  0  0  0  0  0  0  0  0  0
   -9.5670    3.7060    0.9066 H   0  0  0  0  0  0  0  0  0  0  0  0
   -9.0078    2.0831    1.2926 H   0  0  0  0  0  0  0  0  0  0  0  0
  -11.4110    2.3577    1.8021 H   0  0  0  0  0  0  0  0  0  0  0  0
  -11.2157    1.1492    0.5194 H   0  0  0  0  0  0  0  0  0  0  0  0
  -12.8465    2.6885    0.0900 H   0  0  0  0  0  0  0  0  0  0  0  0
  1  2  1  0
  2  3  1  0
  3  4  1  0
  4  5  1  0
  5  6  1  0
  6  7  1  0
  7  8  1  0
  8  9  1  0
  9 10  1  0
 10 11  1  0
 11 12  1  0
 12 13  1  0
 13 14  1  0
 14 15  1  0
 15 16  1  0
 16 17  1  0
 17 18  1  0
 18 19  1  0
 19 20  1  0
 20 21  1  0
 21 22  1  0
 22 23  1  0
 23 24  1  0
 24 25  1  0
 25 26  1  0
 26 27  1  0
 27 28  1  0
 28 29  1  0
  1 30  1  0
  1 31  1  0
  1 32  1  0
  2 33  1  0
  2 34  1  0
  3 35  1  0
  3 36  1  0
  4 37  1  0
  4 38  1  0
  5 39  1  0
  5 40  1  0
  6 41  1  0
  6 42  1  0
  7 43  1  0
  7 44  1  0
  8 45  1  0
  8 46  1  0
  9 47  1  0
  9 48  1  0
 10 49  1  0
 10 50  1  0
 11 51  1  0
 11 52  1  0
 12 53  1  0
 12 54  1  0
 13 55  1  0
 13 56  1  0
 14 57  1  0
 14 58  1  0
 15 59  1  0
 15 60  1  0
 16 61  1  0
 16 62  1  0
 17 63  1  0
 17 64  1  0
 18 65  1  0
 18 66  1  0
 19 67  1  0
 19 68  1  0
 20 69  1  0
 20 70  1  0
 21 71  1  0
 21 72  1  0
 22 73  1  0
 22 74  1  0
 23 75  1  0
 23 76  1  0
 24 77  1  0
 24 78  1  0
 25 79  1  0
 25 80  1  0
 26 81  1  0
 26 82  1  0
 27 83  1  0
 27 84  1  0
 28 85  1  0
 28 86  1  0
 29 87  1  0
M  END
$$$$
