Created with the Wolfram Language for Students - Personal Use Only : www.wolfram.com
     WL             3D

 54 59  0  0  0  0  0  0  0  0999 V2000
   -3.7058   -0.4407    2.0981 C   0  0  0  0  0  0  0  0  0  0  0  0
   -2.9442    0.1390    0.9173 C   0  0  2  0  0  0  0  0  0  0  0  0
   -3.8655    0.7495   -0.1100 C   0  0  0  0  0  0  0  0  0  0  0  0
   -4.8749    1.3921    0.1263 O   0  0  0  0  0  0  0  0  0  0  0  0
   -3.3664    0.5655   -1.3697 O   0  0  0  0  0  0  0  0  0  0  0  0
   -2.1930   -0.2425   -1.3041 C   0  0  1  0  0  0  0  0  0  0  0  0
   -0.9296    0.6243   -1.3492 C   0  0  2  0  0  0  0  0  0  0  0  0
   -0.5868    0.9256   -2.6895 O   0  0  0  0  0  0  0  0  0  0  0  0
    0.1363   -0.2328   -0.6528 C   0  0  1  0  0  0  0  0  0  0  0  0
    0.7783   -1.2820   -1.5597 C   0  0  1  0  0  0  0  0  0  0  0  0
    2.2798   -1.0504   -1.4516 C   0  0  0  0  0  0  0  0  0  0  0  0
    2.4773   -0.5938    0.0066 C   0  0  1  0  0  0  0  0  0  0  0  0
    3.9699   -0.2601    0.3708 C   0  0  0  0  0  0  0  0  0  0  0  0
    4.7861   -1.5832    0.3359 C   0  0  0  0  0  0  0  0  0  0  0  0
    4.6756    0.7006   -0.6058 C   0  0  0  0  0  0  0  0  0  0  0  0
    4.0963    0.2795    1.8085 C   0  0  0  0  0  0  0  0  0  0  0  0
    1.2898    0.4160    0.1825 C   0  0  1  0  0  0  0  0  0  0  0  0
    1.5980    1.8850   -0.0443 C   0  0  1  0  0  0  0  0  0  0  0  0
    1.6639    2.2087   -1.4070 O   0  0  0  0  0  0  0  0  0  0  0  0
    0.5358    2.5776    0.7863 C   0  0  0  0  0  0  0  0  0  0  0  0
    0.1507    3.7236    0.6274 O   0  0  0  0  0  0  0  0  0  0  0  0
    0.0509    1.7169    1.7207 O   0  0  0  0  0  0  0  0  0  0  0  0
    0.6865    0.4478    1.5767 C   0  0  1  0  0  0  0  0  0  0  0  0
   -0.2929   -0.5890    1.6740 O   0  0  0  0  0  0  0  0  0  0  0  0
   -0.6575   -1.0416    0.3741 C   0  0  2  0  0  0  0  0  0  0  0  0
   -0.2230   -2.4751    0.1370 C   0  0  0  0  0  0  0  0  0  0  0  0
   -0.4728   -3.4182    0.8724 O   0  0  0  0  0  0  0  0  0  0  0  0
    0.4827   -2.5736   -1.0166 O   0  0  0  0  0  0  0  0  0  0  0  0
   -2.1709   -0.8766    0.0765 C   0  0  1  0  0  0  0  0  0  0  0  0
   -2.8905   -2.1100    0.0271 O   0  0  0  0  0  0  0  0  0  0  0  0
   -3.0336   -0.9864    2.7676 H   0  0  0  0  0  0  0  0  0  0  0  0
   -4.1790    0.3607    2.6762 H   0  0  0  0  0  0  0  0  0  0  0  0
   -4.5069   -1.1161    1.7790 H   0  0  0  0  0  0  0  0  0  0  0  0
   -2.3033    0.9556    1.2611 H   0  0  0  0  0  0  0  0  0  0  0  0
   -2.2324   -0.9730   -2.1202 H   0  0  0  0  0  0  0  0  0  0  0  0
   -1.1108    1.5737   -0.8408 H   0  0  0  0  0  0  0  0  0  0  0  0
   -1.3156    1.4503   -3.0746 H   0  0  0  0  0  0  0  0  0  0  0  0
    0.4487   -1.2757   -2.6019 H   0  0  0  0  0  0  0  0  0  0  0  0
    2.8377   -1.9640   -1.6752 H   0  0  0  0  0  0  0  0  0  0  0  0
    2.5811   -0.2675   -2.1548 H   0  0  0  0  0  0  0  0  0  0  0  0
    2.2331   -1.4550    0.6478 H   0  0  0  0  0  0  0  0  0  0  0  0
    4.8352   -2.0063   -0.6725 H   0  0  0  0  0  0  0  0  0  0  0  0
    5.8195   -1.4199    0.6647 H   0  0  0  0  0  0  0  0  0  0  0  0
    4.3485   -2.3389    0.9980 H   0  0  0  0  0  0  0  0  0  0  0  0
    5.7198    0.8558   -0.3067 H   0  0  0  0  0  0  0  0  0  0  0  0
    4.2184    1.6885   -0.6476 H   0  0  0  0  0  0  0  0  0  0  0  0
    4.6990    0.2997   -1.6243 H   0  0  0  0  0  0  0  0  0  0  0  0
    3.6152    1.2503    1.9405 H   0  0  0  0  0  0  0  0  0  0  0  0
    5.1485    0.4104    2.0889 H   0  0  0  0  0  0  0  0  0  0  0  0
    3.6547   -0.4174    2.5296 H   0  0  0  0  0  0  0  0  0  0  0  0
    2.5329    2.1947    0.4219 H   0  0  0  0  0  0  0  0  0  0  0  0
    1.6103    3.1816   -1.4823 H   0  0  0  0  0  0  0  0  0  0  0  0
    1.4020    0.3301    2.3934 H   0  0  0  0  0  0  0  0  0  0  0  0
   -2.6907   -2.6395    0.8275 H   0  0  0  0  0  0  0  0  0  0  0  0
  1  2  1  0
  2  3  1  0
  3  4  2  0
  3  5  1  0
  5  6  1  0
  6  7  1  0
  7  8  1  0
  7  9  1  0
  9 10  1  0
 10 11  1  0
 11 12  1  0
 12 13  1  0
 13 14  1  0
 13 15  1  0
 13 16  1  0
 12 17  1  0
 17 18  1  0
 18 19  1  0
 18 20  1  0
 20 21  2  0
 20 22  1  0
 22 23  1  0
 23 24  1  0
 25 24  1  1
 25 26  1  0
 26 27  2  0
 26 28  1  0
 25 29  1  0
 29 30  1  6
 29  2  1  0
 29  6  1  0
 17  9  1  6
 23 17  1  0
  9 25  1  1
 28 10  1  0
  1 31  1  0
  1 32  1  0
  1 33  1  0
  2 34  1  1
  6 35  1  6
  7 36  1  1
  8 37  1  0
 10 38  1  6
 11 39  1  0
 11 40  1  0
 12 41  1  1
 14 42  1  0
 14 43  1  0
 14 44  1  0
 15 45  1  0
 15 46  1  0
 15 47  1  0
 16 48  1  0
 16 49  1  0
 16 50  1  0
 18 51  1  1
 19 52  1  0
 23 53  1  1
 30 54  1  0
M  END
$$$$
