Created with the Wolfram Language for Students - Personal Use Only : www.wolfram.com
     WL             3D

 40 39  0  0  0  0  0  0  0  0999 V2000
   -6.3314    0.8890   -0.0145 N   0  0  0  0  0  0  0  0  0  0  0  0
   -5.8561   -0.2884    0.7064 C   0  0  0  0  0  0  0  0  0  0  0  0
   -4.9523   -1.1961   -0.1341 C   0  0  0  0  0  0  0  0  0  0  0  0
   -3.6396   -0.5621   -0.6085 C   0  0  0  0  0  0  0  0  0  0  0  0
   -2.8011   -0.1645    0.5201 N   0  0  0  0  0  0  0  0  0  0  0  0
   -1.5684    0.5110    0.1118 C   0  0  0  0  0  0  0  0  0  0  0  0
   -0.4951   -0.4581   -0.3953 C   0  0  0  0  0  0  0  0  0  0  0  0
    0.7881    0.2455   -0.8525 C   0  0  0  0  0  0  0  0  0  0  0  0
    1.5339    0.9495    0.2861 C   0  0  0  0  0  0  0  0  0  0  0  0
    2.7967    1.5230   -0.1758 N   0  0  0  0  0  0  0  0  0  0  0  0
    3.9872    0.8746    0.3824 C   0  0  0  0  0  0  0  0  0  0  0  0
    4.2260   -0.5354   -0.1695 C   0  0  0  0  0  0  0  0  0  0  0  0
    5.4758   -1.1960    0.4162 C   0  0  0  0  0  0  0  0  0  0  0  0
    6.6986   -0.5067    0.0242 N   0  0  0  0  0  0  0  0  0  0  0  0
   -5.5419    1.5141   -0.1790 H   0  0  0  0  0  0  0  0  0  0  0  0
   -6.6820    0.6189   -0.9312 H   0  0  0  0  0  0  0  0  0  0  0  0
   -6.7313   -0.8663    1.0236 H   0  0  0  0  0  0  0  0  0  0  0  0
   -5.3452    0.0303    1.6211 H   0  0  0  0  0  0  0  0  0  0  0  0
   -4.7249   -2.0964    0.4515 H   0  0  0  0  0  0  0  0  0  0  0  0
   -5.5094   -1.5400   -1.0152 H   0  0  0  0  0  0  0  0  0  0  0  0
   -3.1167   -1.2970   -1.2304 H   0  0  0  0  0  0  0  0  0  0  0  0
   -3.8598    0.3035   -1.2435 H   0  0  0  0  0  0  0  0  0  0  0  0
   -2.5802   -0.9756    1.0972 H   0  0  0  0  0  0  0  0  0  0  0  0
   -1.1910    1.0349    0.9963 H   0  0  0  0  0  0  0  0  0  0  0  0
   -1.7805    1.2842   -0.6363 H   0  0  0  0  0  0  0  0  0  0  0  0
   -0.8807   -1.0279   -1.2486 H   0  0  0  0  0  0  0  0  0  0  0  0
   -0.2514   -1.1878    0.3869 H   0  0  0  0  0  0  0  0  0  0  0  0
    1.4411   -0.5090   -1.3080 H   0  0  0  0  0  0  0  0  0  0  0  0
    0.5452    0.9679   -1.6421 H   0  0  0  0  0  0  0  0  0  0  0  0
    0.9238    1.7798    0.6571 H   0  0  0  0  0  0  0  0  0  0  0  0
    1.6744    0.2651    1.1312 H   0  0  0  0  0  0  0  0  0  0  0  0
    2.8506    1.5343   -1.1929 H   0  0  0  0  0  0  0  0  0  0  0  0
    3.9261    0.8557    1.4774 H   0  0  0  0  0  0  0  0  0  0  0  0
    4.8443    1.5118    0.1365 H   0  0  0  0  0  0  0  0  0  0  0  0
    3.3691   -1.1772    0.0674 H   0  0  0  0  0  0  0  0  0  0  0  0
    4.3022   -0.5013   -1.2639 H   0  0  0  0  0  0  0  0  0  0  0  0
    5.4088   -1.2190    1.5093 H   0  0  0  0  0  0  0  0  0  0  0  0
    5.5286   -2.2345    0.0709 H   0  0  0  0  0  0  0  0  0  0  0  0
    6.7990   -0.5295   -0.9902 H   0  0  0  0  0  0  0  0  0  0  0  0
    7.5050   -1.0046    0.4003 H   0  0  0  0  0  0  0  0  0  0  0  0
  1  2  1  0
  2  3  1  0
  3  4  1  0
  4  5  1  0
  5  6  1  0
  6  7  1  0
  7  8  1  0
  8  9  1  0
  9 10  1  0
 10 11  1  0
 11 12  1  0
 12 13  1  0
 13 14  1  0
  1 15  1  0
  1 16  1  0
  2 17  1  0
  2 18  1  0
  3 19  1  0
  3 20  1  0
  4 21  1  0
  4 22  1  0
  5 23  1  0
  6 24  1  0
  6 25  1  0
  7 26  1  0
  7 27  1  0
  8 28  1  0
  8 29  1  0
  9 30  1  0
  9 31  1  0
 10 32  1  0
 11 33  1  0
 11 34  1  0
 12 35  1  0
 12 36  1  0
 13 37  1  0
 13 38  1  0
 14 39  1  0
 14 40  1  0
M  END
$$$$
