Created with the Wolfram Language for Students - Personal Use Only : www.wolfram.com
     WL             3D

 91 92  0  0  0  0  0  0  0  0999 V2000
    2.4014    1.3185   -2.3889 C   0  0  0  0  0  0  0  0  0  0  0  0
    1.1160    1.1061   -3.1773 C   0  0  0  0  0  0  0  0  0  0  0  0
    1.2045   -0.0352   -4.1826 C   0  0  0  0  0  0  0  0  0  0  0  0
   -0.1869    1.0896   -2.3674 C   0  0  0  0  0  0  0  0  0  0  0  0
   -1.1229    1.7908   -2.7936 O   0  0  0  0  0  0  0  0  0  0  0  0
   -0.3460    0.4105   -0.9782 C   0  0  1  0  0  0  0  0  0  0  0  0
   -0.0242    1.5662   -0.0062 C   0  0  0  0  0  0  0  0  0  0  0  0
   -0.6282    2.7993   -0.2719 O   0  0  0  0  0  0  0  0  0  0  0  0
    0.8404    1.5180    1.0250 C   0  0  0  0  0  0  0  0  0  0  0  0
    1.2132    2.7028    1.8865 C   0  0  0  0  0  0  0  0  0  0  0  0
    2.5898    3.2183    1.5527 C   0  0  0  0  0  0  0  0  0  0  0  0
    2.9230    4.3213    0.8531 C   0  0  0  0  0  0  0  0  0  0  0  0
    4.3706    4.6742    0.6273 C   0  0  0  0  0  0  0  0  0  0  0  0
    1.9476    5.2829    0.2325 C   0  0  0  0  0  0  0  0  0  0  0  0
    1.4274    0.2031    1.4201 C   0  0  0  0  0  0  0  0  0  0  0  0
    2.1917    0.1458    2.3831 O   0  0  0  0  0  0  0  0  0  0  0  0
    0.9050   -1.0385    0.7100 C   0  0  1  0  0  0  0  0  0  0  0  0
    1.9029   -2.2144    0.8763 C   0  0  0  0  0  0  0  0  0  0  0  0
    3.2688   -2.0083    0.2595 C   0  0  0  0  0  0  0  0  0  0  0  0
    4.4613   -1.8996    0.8785 C   0  0  0  0  0  0  0  0  0  0  0  0
    5.7232   -1.7118    0.0748 C   0  0  0  0  0  0  0  0  0  0  0  0
    4.6846   -1.9405    2.3654 C   0  0  0  0  0  0  0  0  0  0  0  0
   -0.4562   -1.3611    1.3846 C   0  0  0  0  0  0  0  0  0  0  0  0
   -1.7438   -1.3305    0.5018 C   0  0  2  0  0  0  0  0  0  0  0  0
   -2.2615   -2.7844    0.2732 C   0  0  0  0  0  0  0  0  0  0  0  0
   -1.2924   -3.7290   -0.3839 C   0  0  0  0  0  0  0  0  0  0  0  0
   -0.8301   -4.9052    0.0869 C   0  0  0  0  0  0  0  0  0  0  0  0
   -1.2074   -5.5460    1.3944 C   0  0  0  0  0  0  0  0  0  0  0  0
    0.1663   -5.7086   -0.7138 C   0  0  0  0  0  0  0  0  0  0  0  0
   -1.7833   -0.2982   -0.7489 C   0  0  2  0  0  0  0  0  0  0  0  0
   -2.1996   -0.9988   -2.0788 C   0  0  0  0  0  0  0  0  0  0  0  0
   -2.9060    0.7682   -0.4321 C   0  0  0  0  0  0  0  0  0  0  0  0
   -4.3541    0.2445   -0.3849 C   0  0  0  0  0  0  0  0  0  0  0  0
   -5.3075    1.3417    0.0073 C   0  0  0  0  0  0  0  0  0  0  0  0
   -5.9120    1.5234    1.1965 C   0  0  0  0  0  0  0  0  0  0  0  0
   -6.8761    2.6648    1.4011 C   0  0  0  0  0  0  0  0  0  0  0  0
   -5.7032    0.6649    2.4130 C   0  0  0  0  0  0  0  0  0  0  0  0
    0.6112   -0.7412   -0.7407 C   0  0  0  0  0  0  0  0  0  0  0  0
    0.9697   -1.4822   -1.6526 O   0  0  0  0  0  0  0  0  0  0  0  0
    2.2958    2.1432   -1.6774 H   0  0  0  0  0  0  0  0  0  0  0  0
    2.7117    0.4318   -1.8333 H   0  0  0  0  0  0  0  0  0  0  0  0
    3.2219    1.5772   -3.0683 H   0  0  0  0  0  0  0  0  0  0  0  0
    1.0167    2.0193   -3.7857 H   0  0  0  0  0  0  0  0  0  0  0  0
    0.2126   -0.3865   -4.4866 H   0  0  0  0  0  0  0  0  0  0  0  0
    1.7319    0.2991   -5.0843 H   0  0  0  0  0  0  0  0  0  0  0  0
    1.7674   -0.8894   -3.7979 H   0  0  0  0  0  0  0  0  0  0  0  0
   -1.1326    2.7799   -1.1147 H   0  0  0  0  0  0  0  0  0  0  0  0
    1.1946    2.4172    2.9475 H   0  0  0  0  0  0  0  0  0  0  0  0
    0.4644    3.4983    1.8164 H   0  0  0  0  0  0  0  0  0  0  0  0
    3.3946    2.5967    1.9488 H   0  0  0  0  0  0  0  0  0  0  0  0
    4.5782    4.7745   -0.4428 H   0  0  0  0  0  0  0  0  0  0  0  0
    4.6073    5.6233    1.1187 H   0  0  0  0  0  0  0  0  0  0  0  0
    5.0517    3.9143    1.0268 H   0  0  0  0  0  0  0  0  0  0  0  0
    0.9040    5.0560    0.4581 H   0  0  0  0  0  0  0  0  0  0  0  0
    2.1439    6.3003    0.5901 H   0  0  0  0  0  0  0  0  0  0  0  0
    2.0576    5.2763   -0.8576 H   0  0  0  0  0  0  0  0  0  0  0  0
    1.4862   -3.1111    0.4026 H   0  0  0  0  0  0  0  0  0  0  0  0
    1.9895   -2.4710    1.9378 H   0  0  0  0  0  0  0  0  0  0  0  0
    3.2669   -1.9840   -0.8311 H   0  0  0  0  0  0  0  0  0  0  0  0
    6.4166   -2.5408    0.2543 H   0  0  0  0  0  0  0  0  0  0  0  0
    6.2183   -0.7773    0.3620 H   0  0  0  0  0  0  0  0  0  0  0  0
    5.5284   -1.6641   -1.0019 H   0  0  0  0  0  0  0  0  0  0  0  0
    5.1364   -1.0012    2.7026 H   0  0  0  0  0  0  0  0  0  0  0  0
    5.3646   -2.7607    2.6197 H   0  0  0  0  0  0  0  0  0  0  0  0
    3.7715   -2.0885    2.9425 H   0  0  0  0  0  0  0  0  0  0  0  0
   -0.6314   -0.6539    2.2110 H   0  0  0  0  0  0  0  0  0  0  0  0
   -0.3905   -2.3255    1.9076 H   0  0  0  0  0  0  0  0  0  0  0  0
   -2.4893   -0.9379    1.2096 H   0  0  0  0  0  0  0  0  0  0  0  0
   -2.5552   -3.1693    1.2562 H   0  0  0  0  0  0  0  0  0  0  0  0
   -3.1979   -2.7778   -0.2927 H   0  0  0  0  0  0  0  0  0  0  0  0
   -0.9348   -3.4192   -1.3635 H   0  0  0  0  0  0  0  0  0  0  0  0
   -1.9946   -5.0165    1.9350 H   0  0  0  0  0  0  0  0  0  0  0  0
   -1.5763   -6.5624    1.2186 H   0  0  0  0  0  0  0  0  0  0  0  0
   -0.3318   -5.6072    2.0514 H   0  0  0  0  0  0  0  0  0  0  0  0
    0.4519   -5.2114   -1.6465 H   0  0  0  0  0  0  0  0  0  0  0  0
    1.0794   -5.8665   -0.1308 H   0  0  0  0  0  0  0  0  0  0  0  0
   -0.2566   -6.6847   -0.9750 H   0  0  0  0  0  0  0  0  0  0  0  0
   -1.4049   -1.6257   -2.4895 H   0  0  0  0  0  0  0  0  0  0  0  0
   -2.4547   -0.2690   -2.8553 H   0  0  0  0  0  0  0  0  0  0  0  0
   -3.0901   -1.6226   -1.9750 H   0  0  0  0  0  0  0  0  0  0  0  0
   -2.6819    1.2478    0.5302 H   0  0  0  0  0  0  0  0  0  0  0  0
   -2.8862    1.5627   -1.1837 H   0  0  0  0  0  0  0  0  0  0  0  0
   -4.6627   -0.1070   -1.3765 H   0  0  0  0  0  0  0  0  0  0  0  0
   -4.4495   -0.6150    0.2807 H   0  0  0  0  0  0  0  0  0  0  0  0
   -5.5273    2.0444   -0.7968 H   0  0  0  0  0  0  0  0  0  0  0  0
   -6.5166    3.3275    2.1956 H   0  0  0  0  0  0  0  0  0  0  0  0
   -7.8613    2.2811    1.6859 H   0  0  0  0  0  0  0  0  0  0  0  0
   -7.0021    3.2697    0.4969 H   0  0  0  0  0  0  0  0  0  0  0  0
   -6.6087    0.0870    2.6273 H   0  0  0  0  0  0  0  0  0  0  0  0
   -5.4816    1.2915    3.2835 H   0  0  0  0  0  0  0  0  0  0  0  0
   -4.8692   -0.0348    2.3108 H   0  0  0  0  0  0  0  0  0  0  0  0
  1  2  1  0
  2  3  1  0
  2  4  1  0
  4  5  2  0
  6  4  1  6
  6  7  1  0
  7  8  1  0
  7  9  2  0
  9 10  1  0
 10 11  1  0
 11 12  2  3
 12 13  1  0
 12 14  1  0
  9 15  1  0
 15 16  2  0
 15 17  1  0
 17 18  1  6
 18 19  1  0
 19 20  2  3
 20 21  1  0
 20 22  1  0
 17 23  1  0
 23 24  1  0
 24 25  1  0
 25 26  1  0
 26 27  2  3
 27 28  1  0
 27 29  1  0
 24 30  1  0
 30 31  1  6
 30 32  1  0
 32 33  1  0
 33 34  1  0
 34 35  2  3
 35 36  1  0
 35 37  1  0
 17 38  1  0
 38 39  2  0
 30  6  1  0
 38  6  1  0
  1 40  1  0
  1 41  1  0
  1 42  1  0
  2 43  1  0
  3 44  1  0
  3 45  1  0
  3 46  1  0
  8 47  1  0
 10 48  1  0
 10 49  1  0
 11 50  1  0
 13 51  1  0
 13 52  1  0
 13 53  1  0
 14 54  1  0
 14 55  1  0
 14 56  1  0
 18 57  1  0
 18 58  1  0
 19 59  1  0
 21 60  1  0
 21 61  1  0
 21 62  1  0
 22 63  1  0
 22 64  1  0
 22 65  1  0
 23 66  1  0
 23 67  1  0
 24 68  1  1
 25 69  1  0
 25 70  1  0
 26 71  1  0
 28 72  1  0
 28 73  1  0
 28 74  1  0
 29 75  1  0
 29 76  1  0
 29 77  1  0
 31 78  1  0
 31 79  1  0
 31 80  1  0
 32 81  1  0
 32 82  1  0
 33 83  1  0
 33 84  1  0
 34 85  1  0
 36 86  1  0
 36 87  1  0
 36 88  1  0
 37 89  1  0
 37 90  1  0
 37 91  1  0
M  END
$$$$
