Created with the Wolfram Language for Students - Personal Use Only : www.wolfram.com
     WL             3D

 17 17  0  0  0  0  0  0  0  0999 V2000
    2.0818    1.0790   -0.0645 O   0  0  0  0  0  0  0  0  0  0  0  0
    1.4335   -0.1050   -0.0243 C   0  0  0  0  0  0  0  0  0  0  0  0
    2.0493   -1.1190    0.2685 O   0  0  0  0  0  0  0  0  0  0  0  0
   -0.0210   -0.0074   -0.4750 C   0  0  2  0  0  0  0  0  0  0  0  0
   -0.7613    1.2221    0.0400 C   0  0  0  0  0  0  0  0  0  0  0  0
   -2.1855    0.7477    0.3173 C   0  0  0  0  0  0  0  0  0  0  0  0
   -2.2104   -0.7080   -0.1130 C   0  0  0  0  0  0  0  0  0  0  0  0
   -0.8261   -1.1237    0.0603 N   0  0  0  0  0  0  0  0  0  0  0  0
    2.9894    0.8476    0.2253 H   0  0  0  0  0  0  0  0  0  0  0  0
   -0.0346   -0.0333   -1.5718 H   0  0  0  0  0  0  0  0  0  0  0  0
   -0.7560    2.0216   -0.7092 H   0  0  0  0  0  0  0  0  0  0  0  0
   -0.3189    1.6269    0.9579 H   0  0  0  0  0  0  0  0  0  0  0  0
   -2.9269    1.3435   -0.2245 H   0  0  0  0  0  0  0  0  0  0  0  0
   -2.4009    0.8370    1.3888 H   0  0  0  0  0  0  0  0  0  0  0  0
   -2.5108   -0.7976   -1.1635 H   0  0  0  0  0  0  0  0  0  0  0  0
   -2.8951   -1.3046    0.4961 H   0  0  0  0  0  0  0  0  0  0  0  0
   -0.6152   -1.9878   -0.4367 H   0  0  0  0  0  0  0  0  0  0  0  0
  1  2  1  0
  2  3  2  0
  2  4  1  0
  4  5  1  0
  5  6  1  0
  6  7  1  0
  7  8  1  0
  8  4  1  0
  1  9  1  0
  4 10  1  6
  5 11  1  0
  5 12  1  0
  6 13  1  0
  6 14  1  0
  7 15  1  0
  7 16  1  0
  8 17  1  0
M  END
$$$$
