Created with the Wolfram Language for Students - Personal Use Only : www.wolfram.com
     WL             3D

 23 20  0  0  0  0  0  0  0  0999 V2000
    4.1492   -1.4571   -0.1842 Mg  0  0  0  0  0 15  0  0  0  0  0  0
    2.3527   -0.3528   -0.7778 C   0  0  0  0  0  0  0  0  0  0  0  0
    2.0583    0.7445    0.2193 C   0  0  0  0  0  0  0  0  0  0  0  0
    2.4498    1.9721   -0.2888 O   0  0  0  0  0  0  0  0  0  0  0  0
    0.6039    0.7552    0.4563 C   0  0  0  0  0  0  0  0  0  0  0  0
    0.0197   -0.1877    1.2566 O   0  0  0  0  0  0  0  0  0  0  0  0
   -0.1105    1.6389   -0.0811 O   0  0  0  0  0  0  0  0  0  0  0  0
   -2.4046   -1.9677   -0.9869 C   0  0  0  0  0  0  0  0  0  0  0  0
   -2.4321   -1.1253    0.2679 C   0  0  0  0  0  0  0  0  0  0  0  0
   -1.2168   -1.2069    0.9273 O   0  0  0  0  0  0  0  0  0  0  0  0
   -2.6763    0.2708   -0.1357 C   0  0  0  0  0  0  0  0  0  0  0  0
   -3.9297    0.6856   -0.4933 O   0  0  0  0  0  0  0  0  0  0  0  0
   -1.7247    1.0920   -0.1528 O   0  0  0  0  0  0  0  0  0  0  0  0
    3.2670   -0.8870   -0.4150 H   0  0  0  0  0  0  0  0  0  0  0  0
    2.5322    0.1191   -1.7683 H   0  0  0  0  0  0  0  0  0  0  0  0
    1.4892   -1.0439   -0.9098 H   0  0  0  0  0  0  0  0  0  0  0  0
    2.5893    0.5832    1.1808 H   0  0  0  0  0  0  0  0  0  0  0  0
    3.1037    2.4455    0.2627 H   0  0  0  0  0  0  0  0  0  0  0  0
   -2.9832   -2.9002   -0.7670 H   0  0  0  0  0  0  0  0  0  0  0  0
   -1.3437   -2.2019   -1.2229 H   0  0  0  0  0  0  0  0  0  0  0  0
   -2.8105   -1.4218   -1.8689 H   0  0  0  0  0  0  0  0  0  0  0  0
   -3.2283   -1.4530    0.9688 H   0  0  0  0  0  0  0  0  0  0  0  0
   -1.2789   -1.5362    1.8458 H   0  0  0  0  0  0  0  0  0  0  0  0
  2  3  1  0
  3  4  1  0
  3  5  1  0
  5  6  1  0
  5  7  2  0
  8  9  1  0
  9 10  1  0
  9 11  1  0
 11 12  1  0
 11 13  2  0
  2 14  1  0
  2 15  1  0
  2 16  1  0
  3 17  1  0
  4 18  1  0
  8 19  1  0
  8 20  1  0
  8 21  1  0
  9 22  1  0
 10 23  1  0
M  CHG  3   1   2   6  -1  12  -1
M  END
$$$$
