Created with the Wolfram Language for Students - Personal Use Only : www.wolfram.com
     WL             3D

 23 22  0  0  0  0  0  0  0  0999 V2000
   -2.2087   -2.4323   -0.6101 C   0  0  0  0  0  0  0  0  0  0  0  0
   -1.5228   -1.2333   -0.1413 N   0  0  0  0  0  0  0  0  0  0  0  0
   -2.3902   -0.2664    0.5698 C   0  0  0  0  0  0  0  0  0  0  0  0
   -2.3447    1.1431   -0.0304 C   0  0  0  0  0  0  0  0  0  0  0  0
   -3.2515    1.9875    0.5218 O   0  0  0  0  0  0  0  0  0  0  0  0
   -1.5657    1.5246   -0.8973 O   0  0  0  0  0  0  0  0  0  0  0  0
   -0.1685   -1.2514    0.1162 C   0  0  0  0  0  0  0  0  0  0  0  0
    0.4971   -2.3080    0.4177 N   0  0  0  0  0  0  0  0  0  0  0  0
    0.4028   -0.0329    0.0085 N   0  0  0  0  0  0  0  0  0  0  0  0
    1.9847    0.2768    0.1160 P   0  0  0  0  0  0  0  0  0  0  0  0
    2.6367   -0.0092   -1.3214 O   0  0  0  0  0  0  0  0  0  0  0  0
    2.0706    1.8831    0.0333 O   0  0  0  0  0  0  0  0  0  0  0  0
    2.8935   -0.1985    1.2027 O   0  0  0  0  0  0  0  0  0  0  0  0
   -1.5899   -2.9817   -1.3279 H   0  0  0  0  0  0  0  0  0  0  0  0
   -3.1388   -2.1696   -1.1256 H   0  0  0  0  0  0  0  0  0  0  0  0
   -2.4491   -3.0927    0.2293 H   0  0  0  0  0  0  0  0  0  0  0  0
   -2.0872   -0.2048    1.6214 H   0  0  0  0  0  0  0  0  0  0  0  0
   -3.4342   -0.5995    0.5341 H   0  0  0  0  0  0  0  0  0  0  0  0
   -3.8028    1.6012    1.2294 H   0  0  0  0  0  0  0  0  0  0  0  0
   -0.1152   -3.1197    0.4681 H   0  0  0  0  0  0  0  0  0  0  0  0
   -0.0742    0.5062   -0.7037 H   0  0  0  0  0  0  0  0  0  0  0  0
    3.6055    0.0557   -1.2312 H   0  0  0  0  0  0  0  0  0  0  0  0
    1.3179    2.2771   -0.4408 H   0  0  0  0  0  0  0  0  0  0  0  0
  1  2  1  0
  2  3  1  0
  3  4  1  0
  4  5  1  0
  4  6  2  0
  2  7  1  0
  7  8  2  3
  7  9  1  0
  9 10  1  0
 10 11  1  0
 10 12  1  0
 10 13  2  0
  1 14  1  0
  1 15  1  0
  1 16  1  0
  3 17  1  0
  3 18  1  0
  5 19  1  0
  8 20  1  0
  9 21  1  0
 11 22  1  0
 12 23  1  0
M  END
$$$$
