Created with the Wolfram Language for Students - Personal Use Only : www.wolfram.com
     WL             3D

 31 28  0  0  0  0  0  0  0  0999 V2000
   -4.9713   -0.2505   -0.0781 Mg  0  0  0  0  0 15  0  0  0  0  0  0
   -2.1792   -0.9869    0.1173 C   0  0  0  0  0  0  0  0  0  0  0  0
   -2.2160    0.4798    0.1971 C   0  0  0  0  0  0  0  0  0  0  0  0
   -3.2483    1.0717   -0.1362 O   0  0  0  0  0  0  0  0  0  0  0  0
   -1.0756    1.3002    0.6558 C   0  0  0  0  0  0  0  0  0  0  0  0
   -0.3307    1.9167   -0.5253 C   0  0  0  0  0  0  0  0  0  0  0  0
    0.8085    2.7374   -0.0751 C   0  0  0  0  0  0  0  0  0  0  0  0
    0.7325    4.1173    0.0064 O   0  0  0  0  0  0  0  0  0  0  0  0
    1.8891    2.1859    0.2496 O   0  0  0  0  0  0  0  0  0  0  0  0
    0.2528   -4.1608    0.0121 C   0  0  0  0  0  0  0  0  0  0  0  0
    0.2160   -2.6942    0.0919 C   0  0  0  0  0  0  0  0  0  0  0  0
   -0.8163   -2.1022   -0.2414 O   0  0  0  0  0  0  0  0  0  0  0  0
    1.3565   -1.8737    0.5506 C   0  0  0  0  0  0  0  0  0  0  0  0
    2.1013   -1.2572   -0.6305 C   0  0  0  0  0  0  0  0  0  0  0  0
    3.2405   -0.4365   -0.1804 C   0  0  0  0  0  0  0  0  0  0  0  0
    3.1645    0.9434   -0.0989 O   0  0  0  0  0  0  0  0  0  0  0  0
    4.3211   -0.9881    0.1444 O   0  0  0  0  0  0  0  0  0  0  0  0
   -3.1188   -1.3816   -0.3025 H   0  0  0  0  0  0  0  0  0  0  0  0
   -2.1279   -1.4275    1.1574 H   0  0  0  0  0  0  0  0  0  0  0  0
   -1.3473   -1.3815   -0.5213 H   0  0  0  0  0  0  0  0  0  0  0  0
   -0.3901    0.7410    1.3275 H   0  0  0  0  0  0  0  0  0  0  0  0
   -1.4263    2.1773    1.2728 H   0  0  0  0  0  0  0  0  0  0  0  0
   -0.0152    1.0655   -1.1658 H   0  0  0  0  0  0  0  0  0  0  0  0
   -1.0616    2.4887   -1.1270 H   0  0  0  0  0  0  0  0  0  0  0  0
   -0.6868   -4.5556   -0.4078 H   0  0  0  0  0  0  0  0  0  0  0  0
    0.3041   -4.6014    1.0521 H   0  0  0  0  0  0  0  0  0  0  0  0
    1.0847   -4.5555   -0.6265 H   0  0  0  0  0  0  0  0  0  0  0  0
    2.0419   -2.4329    1.2222 H   0  0  0  0  0  0  0  0  0  0  0  0
    1.0057   -0.9966    1.1676 H   0  0  0  0  0  0  0  0  0  0  0  0
    2.4168   -2.1084   -1.2711 H   0  0  0  0  0  0  0  0  0  0  0  0
    1.3705   -0.6853   -1.2322 H   0  0  0  0  0  0  0  0  0  0  0  0
  2  3  1  0
  3  4  2  0
  3  5  1  0
  5  6  1  0
  6  7  1  0
  7  8  1  0
  7  9  2  0
 10 11  1  0
 11 12  2  0
 11 13  1  0
 13 14  1  0
 14 15  1  0
 15 16  1  0
 15 17  2  0
  2 18  1  0
  2 19  1  0
  2 20  1  0
  5 21  1  0
  5 22  1  0
  6 23  1  0
  6 24  1  0
 10 25  1  0
 10 26  1  0
 10 27  1  0
 13 28  1  0
 13 29  1  0
 14 30  1  0
 14 31  1  0
M  CHG  3   1   2   8  -1  16  -1
M  END
$$$$
