Created with the Wolfram Language for Students - Personal Use Only : www.wolfram.com
     WL             3D

 55 57  0  0  0  0  0  0  0  0999 V2000
    9.2244    0.8526    0.2133 N   0  0  0  0  0  0  0  0  0  0  0  0
    7.8760    0.8054    0.0646 C   0  0  0  0  0  0  0  0  0  0  0  0
    7.1430    1.8166    0.4065 N   0  0  0  0  0  0  0  0  0  0  0  0
    5.8748    1.6526    0.2134 C   0  0  0  0  0  0  0  0  0  0  0  0
    5.0834    2.5185    0.5525 O   0  0  0  0  0  0  0  0  0  0  0  0
    5.2136    0.3649   -0.4144 C   0  0  0  0  0  0  0  0  0  0  0  0
    6.1027   -0.6221   -0.7026 C   0  0  0  0  0  0  0  0  0  0  0  0
    5.6598   -1.8360   -1.2310 N   0  0  0  0  0  0  0  0  0  0  0  0
    4.2664   -1.9433   -1.7211 C   0  0  0  0  0  0  0  0  0  0  0  0
    3.2755   -1.1011   -0.8597 C   0  0  0  0  0  0  0  0  0  0  0  0
    2.9827   -1.8063    0.4891 C   0  0  0  0  0  0  0  0  0  0  0  0
    2.1483   -0.9914    1.3873 N   0  0  0  0  0  0  0  0  0  0  0  0
    0.8182   -0.7133    1.0733 C   0  0  0  0  0  0  0  0  0  0  0  0
    0.2365    0.4575    1.5785 C   0  0  0  0  0  0  0  0  0  0  0  0
   -1.1063    0.7679    1.3358 C   0  0  0  0  0  0  0  0  0  0  0  0
   -1.9109   -0.1143    0.6117 C   0  0  0  0  0  0  0  0  0  0  0  0
   -1.3551   -1.3013    0.1271 C   0  0  0  0  0  0  0  0  0  0  0  0
   -0.0075   -1.5994    0.3722 C   0  0  0  0  0  0  0  0  0  0  0  0
   -3.3329    0.2549    0.3688 C   0  0  0  0  0  0  0  0  0  0  0  0
   -3.6809    1.4307    0.3803 O   0  0  0  0  0  0  0  0  0  0  0  0
   -4.2126   -0.7851    0.1597 N   0  0  0  0  0  0  0  0  0  0  0  0
   -5.6535   -0.5421    0.0357 C   0  0  1  0  0  0  0  0  0  0  0  0
   -5.9971   -0.0121   -1.3675 C   0  0  0  0  0  0  0  0  0  0  0  0
   -7.1680    0.9699   -1.3639 C   0  0  0  0  0  0  0  0  0  0  0  0
   -6.8172    2.2375   -0.6364 C   0  0  0  0  0  0  0  0  0  0  0  0
   -5.9499    3.0037   -1.3199 O   0  0  0  0  0  0  0  0  0  0  0  0
   -7.2282    2.5629    0.4645 O   0  0  0  0  0  0  0  0  0  0  0  0
   -6.3593   -1.8703    0.3164 C   0  0  0  0  0  0  0  0  0  0  0  0
   -7.7006   -1.8019    0.2354 O   0  0  0  0  0  0  0  0  0  0  0  0
   -5.8100   -2.9220    0.6167 O   0  0  0  0  0  0  0  0  0  0  0  0
    3.8422    0.2442   -0.6497 N   0  0  0  0  0  0  0  0  0  0  0  0
    7.4283   -0.3785   -0.4443 N   0  0  0  0  0  0  0  0  0  0  0  0
    9.6132    0.0498    0.6918 H   0  0  0  0  0  0  0  0  0  0  0  0
    9.4894    1.7064    0.6997 H   0  0  0  0  0  0  0  0  0  0  0  0
    6.3422   -2.2581   -1.8518 H   0  0  0  0  0  0  0  0  0  0  0  0
    4.2448   -1.5729   -2.7538 H   0  0  0  0  0  0  0  0  0  0  0  0
    3.9681   -2.9969   -1.7418 H   0  0  0  0  0  0  0  0  0  0  0  0
    2.3393   -0.9919   -1.4188 H   0  0  0  0  0  0  0  0  0  0  0  0
    2.5347   -2.7922    0.3220 H   0  0  0  0  0  0  0  0  0  0  0  0
    3.9230   -1.9946    1.0214 H   0  0  0  0  0  0  0  0  0  0  0  0
    2.6555   -0.1695    1.7125 H   0  0  0  0  0  0  0  0  0  0  0  0
    0.8311    1.1550    2.1648 H   0  0  0  0  0  0  0  0  0  0  0  0
   -1.5203    1.6961    1.7236 H   0  0  0  0  0  0  0  0  0  0  0  0
   -1.9449   -2.0034   -0.4544 H   0  0  0  0  0  0  0  0  0  0  0  0
    0.3753   -2.5475    0.0089 H   0  0  0  0  0  0  0  0  0  0  0  0
   -3.9361   -1.7271    0.4200 H   0  0  0  0  0  0  0  0  0  0  0  0
   -5.9295    0.1560    0.8332 H   0  0  0  0  0  0  0  0  0  0  0  0
   -6.2408   -0.8480   -2.0365 H   0  0  0  0  0  0  0  0  0  0  0  0
   -5.1269    0.4865   -1.8123 H   0  0  0  0  0  0  0  0  0  0  0  0
   -7.4522    1.2318   -2.3901 H   0  0  0  0  0  0  0  0  0  0  0  0
   -8.0582    0.5360   -0.8963 H   0  0  0  0  0  0  0  0  0  0  0  0
   -5.6688    3.6853   -0.6735 H   0  0  0  0  0  0  0  0  0  0  0  0
   -8.0090   -2.7010    0.4768 H   0  0  0  0  0  0  0  0  0  0  0  0
    3.2870    0.9130   -0.1181 H   0  0  0  0  0  0  0  0  0  0  0  0
    8.0895   -1.0634   -0.7718 H   0  0  0  0  0  0  0  0  0  0  0  0
  1  2  1  0
  2  3  2  0
  3  4  1  0
  4  5  2  0
  4  6  1  0
  6  7  2  0
  7  8  1  0
  8  9  1  0
  9 10  1  0
 10 11  1  0
 11 12  1  0
 12 13  1  0
 13 14  2  0
 14 15  1  0
 15 16  2  0
 16 17  1  0
 17 18  2  0
 16 19  1  0
 19 20  2  0
 19 21  1  0
 21 22  1  0
 22 23  1  0
 23 24  1  0
 24 25  1  0
 25 26  1  0
 25 27  2  0
 22 28  1  0
 28 29  1  0
 28 30  2  0
 10 31  1  0
  7 32  1  0
 32  2  1  0
 31  6  1  0
 18 13  1  0
  1 33  1  0
  1 34  1  0
  8 35  1  0
  9 36  1  0
  9 37  1  0
 10 38  1  0
 11 39  1  0
 11 40  1  0
 12 41  1  0
 14 42  1  0
 15 43  1  0
 17 44  1  0
 18 45  1  0
 21 46  1  0
 22 47  1  1
 23 48  1  0
 23 49  1  0
 24 50  1  0
 24 51  1  0
 26 52  1  0
 29 53  1  0
 31 54  1  0
 32 55  1  0
M  END
$$$$
