Created with the Wolfram Language for Students - Personal Use Only : www.wolfram.com
     WL             2D

165172  0  0  0  0  0  0  0  0999 V2000
    3.6027    0.0019    0.0000 H   0  0  0  0  0  0  0  0  0  0  0  0
    3.1077   -0.1079    0.0000 C   0  0  0  0  0  0  0  0  0  0  0  0
    3.2153    0.9139    0.0000 C   0  0  0  0  0  0  0  0  0  0  0  0
    2.2806    1.3543    0.0000 C   0  0  0  0  0  0  0  0  0  0  0  0
    1.6227    0.5952    0.0000 C   0  0  0  0  0  0  0  0  0  0  0  0
    0.4552    2.6777    0.0000 C   0  0  0  0  0  0  0  0  0  0  0  0
    2.1576   -0.3341    0.0000 C   0  0  0  0  0  0  0  0  0  0  0  0
    2.5392   -0.7205    0.0000 H   0  0  0  0  0  0  0  0  0  0  0  0
    1.6377   -1.3158    0.0000 C   0  0  0  0  0  0  0  0  0  0  0  0
    1.5637   -2.4737    0.0000 O   0  0  0  0  0  0  0  0  0  0  0  0
    0.5733   -1.4128    0.0000 C   0  0  0  0  0  0  0  0  0  0  0  0
    0.0161   -0.5979    0.0000 C   0  0  0  0  0  0  0  0  0  0  0  0
   -0.3401   -1.0432    0.0000 H   0  0  0  0  0  0  0  0  0  0  0  0
   -1.1790   -0.7353    0.0000 C   0  0  0  0  0  0  0  0  0  0  0  0
   -0.5631   -2.4801    0.0000 C   0  0  0  0  0  0  0  0  0  0  0  0
   -1.7096   -1.8863    0.0000 C   0  0  0  0  0  0  0  0  0  0  0  0
   -2.7848   -2.0353    0.0000 C   0  0  0  0  0  0  0  0  0  0  0  0
   -3.3426   -1.2212    0.0000 C   0  0  0  0  0  0  0  0  0  0  0  0
   -4.0109   -0.7411    0.0000 O   0  0  0  0  0  0  0  0  0  0  0  0
   -5.0242   -0.8572    0.0000 C   0  0  0  0  0  0  0  0  0  0  0  0
   -5.5871   -1.5744    0.0000 O   0  0  0  0  0  0  0  0  0  0  0  0
   -6.4718   -1.3718    0.0000 C   0  0  0  0  0  0  0  0  0  0  0  0
   -6.5418   -2.3662    0.0000 C   0  0  0  0  0  0  0  0  0  0  0  0
   -7.4618   -2.7766    0.0000 O   0  0  0  0  0  0  0  0  0  0  0  0
   -6.8701   -0.3170    0.0000 C   0  0  0  0  0  0  0  0  0  0  0  0
   -7.7032   -0.7955    0.0000 O   0  0  0  0  0  0  0  0  0  0  0  0
   -6.2667    0.4051    0.0000 C   0  0  0  0  0  0  0  0  0  0  0  0
   -7.1560    1.1441    0.0000 O   0  0  0  0  0  0  0  0  0  0  0  0
   -5.3975    0.2573    0.0000 C   0  0  0  0  0  0  0  0  0  0  0  0
   -5.1627    1.4460    0.0000 O   0  0  0  0  0  0  0  0  0  0  0  0
   -5.7340    2.3739    0.0000 C   0  0  0  0  0  0  0  0  0  0  0  0
   -6.5811    2.8515    0.0000 O   0  0  0  0  0  0  0  0  0  0  0  0
   -6.6218    3.8420    0.0000 C   0  0  0  0  0  0  0  0  0  0  0  0
   -7.6500    3.4728    0.0000 C   0  0  0  0  0  0  0  0  0  0  0  0
   -8.4330    4.0693    0.0000 O   0  0  0  0  0  0  0  0  0  0  0  0
   -5.7206    4.3824    0.0000 C   0  0  0  0  0  0  0  0  0  0  0  0
   -6.3955    5.1026    0.0000 O   0  0  0  0  0  0  0  0  0  0  0  0
   -4.8446    3.9384    0.0000 C   0  0  0  0  0  0  0  0  0  0  0  0
   -4.5276    4.8255    0.0000 O   0  0  0  0  0  0  0  0  0  0  0  0
   -4.8421    2.9381    0.0000 C   0  0  0  0  0  0  0  0  0  0  0  0
   -3.8742    3.1143    0.0000 O   0  0  0  0  0  0  0  0  0  0  0  0
   -2.8510   -0.1179    0.0000 C   0  0  0  0  0  0  0  0  0  0  0  0
   -2.9024    1.2575    0.0000 C   0  0  0  0  0  0  0  0  0  0  0  0
   -3.6279    0.1610    0.0000 C   0  0  0  0  0  0  0  0  0  0  0  0
   -1.7419    0.0083    0.0000 C   0  0  0  0  0  0  0  0  0  0  0  0
   -2.1554    0.4561    0.0000 H   0  0  0  0  0  0  0  0  0  0  0  0
   -1.1750    1.2546    0.0000 C   0  0  0  0  0  0  0  0  0  0  0  0
   -0.0575    1.4015    0.0000 C   0  0  0  0  0  0  0  0  0  0  0  0
    0.5342    0.5417    0.0000 C   0  0  0  0  0  0  0  0  0  0  0  0
    1.4065    2.1858    0.0000 C   0  0  0  0  0  0  0  0  0  0  0  0
    3.5591   -2.0575    0.0000 C   0  0  0  0  0  0  0  0  0  0  0  0
    2.7482   -2.5013    0.0000 C   0  0  0  0  0  0  0  0  0  0  0  0
    3.8168   -3.6343    0.0000 C   0  0  0  0  0  0  0  0  0  0  0  0
    2.9580   -4.5132    0.0000 C   0  0  0  0  0  0  0  0  0  0  0  0
    3.1092   -5.5230    0.0000 C   0  0  0  0  0  0  0  0  0  0  0  0
    2.2424   -6.1471    0.0000 C   0  0  0  0  0  0  0  0  0  0  0  0
    1.3034   -5.7300    0.0000 C   0  0  0  0  0  0  0  0  0  0  0  0
    2.3084   -7.1547    0.0000 C   0  0  0  0  0  0  0  0  0  0  0  0
    4.3872   -2.1263    0.0000 O   0  0  0  0  0  0  0  0  0  0  0  0
    4.8336   -1.6479    0.0000 C   0  0  0  0  0  0  0  0  0  0  0  0
    5.0298   -0.7239    0.0000 O   0  0  0  0  0  0  0  0  0  0  0  0
    5.9826   -0.4536    0.0000 C   0  0  0  0  0  0  0  0  0  0  0  0
    5.3349    0.5278    0.0000 C   0  0  0  0  0  0  0  0  0  0  0  0
    5.6766    1.4163    0.0000 O   0  0  0  0  0  0  0  0  0  0  0  0
    4.9697    2.3005    0.0000 C   0  0  0  0  0  0  0  0  0  0  0  0
    4.0420    2.8284    0.0000 O   0  0  0  0  0  0  0  0  0  0  0  0
    4.0037    3.8403    0.0000 C   0  0  0  0  0  0  0  0  0  0  0  0
    4.9082    4.3608    0.0000 C   0  0  0  0  0  0  0  0  0  0  0  0
    4.2983    5.1247    0.0000 O   0  0  0  0  0  0  0  0  0  0  0  0
    5.8497    3.8633    0.0000 C   0  0  0  0  0  0  0  0  0  0  0  0
    6.1895    4.7516    0.0000 O   0  0  0  0  0  0  0  0  0  0  0  0
    5.8546    2.8477    0.0000 C   0  0  0  0  0  0  0  0  0  0  0  0
    6.8005    2.9578    0.0000 O   0  0  0  0  0  0  0  0  0  0  0  0
    6.7491   -1.1343    0.0000 C   0  0  0  0  0  0  0  0  0  0  0  0
    7.2654   -0.3259    0.0000 O   0  0  0  0  0  0  0  0  0  0  0  0
    6.5222   -2.0656    0.0000 C   0  0  0  0  0  0  0  0  0  0  0  0
    7.4633   -2.1934    0.0000 O   0  0  0  0  0  0  0  0  0  0  0  0
    5.5746   -2.3644    0.0000 C   0  0  0  0  0  0  0  0  0  0  0  0
    5.9699   -3.3411    0.0000 O   0  0  0  0  0  0  0  0  0  0  0  0
    3.8428    0.7444    0.0000 H   0  0  0  0  0  0  0  0  0  0  0  0
    3.4703    1.5118    0.0000 H   0  0  0  0  0  0  0  0  0  0  0  0
    2.6723    1.8730    0.0000 H   0  0  0  0  0  0  0  0  0  0  0  0
    2.0609    1.6859    0.0000 H   0  0  0  0  0  0  0  0  0  0  0  0
    0.7040    3.2782    0.0000 H   0  0  0  0  0  0  0  0  0  0  0  0
    0.2672    3.2999    0.0000 H   0  0  0  0  0  0  0  0  0  0  0  0
   -0.1921    2.7368    0.0000 H   0  0  0  0  0  0  0  0  0  0  0  0
    2.6386   -1.5892    0.0000 H   0  0  0  0  0  0  0  0  0  0  0  0
    1.0497   -2.8716    0.0000 H   0  0  0  0  0  0  0  0  0  0  0  0
    0.0967   -1.7414    0.0000 H   0  0  0  0  0  0  0  0  0  0  0  0
    0.7829   -2.0275    0.0000 H   0  0  0  0  0  0  0  0  0  0  0  0
    0.0843   -2.5386    0.0000 H   0  0  0  0  0  0  0  0  0  0  0  0
   -0.1747   -3.0013    0.0000 H   0  0  0  0  0  0  0  0  0  0  0  0
   -0.9499   -3.0025    0.0000 H   0  0  0  0  0  0  0  0  0  0  0  0
   -1.8266   -2.5257    0.0000 H   0  0  0  0  0  0  0  0  0  0  0  0
   -1.4013   -2.2496    0.0000 H   0  0  0  0  0  0  0  0  0  0  0  0
   -3.3603   -2.3375    0.0000 H   0  0  0  0  0  0  0  0  0  0  0  0
   -2.7006   -2.6798    0.0000 H   0  0  0  0  0  0  0  0  0  0  0  0
   -3.9254   -1.7282    0.0000 H   0  0  0  0  0  0  0  0  0  0  0  0
   -4.7255   -1.6216    0.0000 H   0  0  0  0  0  0  0  0  0  0  0  0
   -7.4704   -1.5618    0.0000 H   0  0  0  0  0  0  0  0  0  0  0  0
   -5.8940   -2.4196    0.0000 H   0  0  0  0  0  0  0  0  0  0  0  0
   -6.2734   -2.9582    0.0000 H   0  0  0  0  0  0  0  0  0  0  0  0
   -7.5406   -3.4218    0.0000 H   0  0  0  0  0  0  0  0  0  0  0  0
   -7.4634    0.2702    0.0000 H   0  0  0  0  0  0  0  0  0  0  0  0
   -8.2530   -0.4487    0.0000 H   0  0  0  0  0  0  0  0  0  0  0  0
   -6.0322    1.1812    0.0000 H   0  0  0  0  0  0  0  0  0  0  0  0
   -7.7946    1.0229    0.0000 H   0  0  0  0  0  0  0  0  0  0  0  0
   -4.6696    0.7612    0.0000 H   0  0  0  0  0  0  0  0  0  0  0  0
   -6.5852    1.7616    0.0000 H   0  0  0  0  0  0  0  0  0  0  0  0
   -7.1005    4.7221    0.0000 H   0  0  0  0  0  0  0  0  0  0  0  0
   -7.4453    2.8559    0.0000 H   0  0  0  0  0  0  0  0  0  0  0  0
   -8.0583    2.9670    0.0000 H   0  0  0  0  0  0  0  0  0  0  0  0
   -9.0243    3.7992    0.0000 H   0  0  0  0  0  0  0  0  0  0  0  0
   -5.1867    5.2701    0.0000 H   0  0  0  0  0  0  0  0  0  0  0  0
   -6.2060    5.7244    0.0000 H   0  0  0  0  0  0  0  0  0  0  0  0
   -3.8151    3.9336    0.0000 H   0  0  0  0  0  0  0  0  0  0  0  0
   -3.8834    4.9120    0.0000 H   0  0  0  0  0  0  0  0  0  0  0  0
   -4.4958    1.9754    0.0000 H   0  0  0  0  0  0  0  0  0  0  0  0
   -3.4018    2.6678    0.0000 H   0  0  0  0  0  0  0  0  0  0  0  0
   -2.2160    1.2477    0.0000 H   0  0  0  0  0  0  0  0  0  0  0  0
   -2.6400    1.8522    0.0000 H   0  0  0  0  0  0  0  0  0  0  0  0
   -3.4294    1.6380    0.0000 H   0  0  0  0  0  0  0  0  0  0  0  0
   -3.5741    0.7747    0.0000 H   0  0  0  0  0  0  0  0  0  0  0  0
   -3.8865    0.8066    0.0000 H   0  0  0  0  0  0  0  0  0  0  0  0
   -4.2692    0.0547    0.0000 H   0  0  0  0  0  0  0  0  0  0  0  0
   -1.0506    1.8926    0.0000 H   0  0  0  0  0  0  0  0  0  0  0  0
   -1.5939    1.7517    0.0000 H   0  0  0  0  0  0  0  0  0  0  0  0
    0.2905    1.5712    0.0000 H   0  0  0  0  0  0  0  0  0  0  0  0
   -0.2089    1.9309    0.0000 H   0  0  0  0  0  0  0  0  0  0  0  0
    1.2763    2.6277    0.0000 H   0  0  0  0  0  0  0  0  0  0  0  0
    1.4552    2.8340    0.0000 H   0  0  0  0  0  0  0  0  0  0  0  0
    1.9179    2.5870    0.0000 H   0  0  0  0  0  0  0  0  0  0  0  0
    2.9708   -3.1120    0.0000 H   0  0  0  0  0  0  0  0  0  0  0  0
    2.3783   -3.0358    0.0000 H   0  0  0  0  0  0  0  0  0  0  0  0
    2.3742   -2.3405    0.0000 H   0  0  0  0  0  0  0  0  0  0  0  0
    4.4668   -3.6431    0.0000 H   0  0  0  0  0  0  0  0  0  0  0  0
    4.2468   -4.1218    0.0000 H   0  0  0  0  0  0  0  0  0  0  0  0
    2.4707   -4.0831    0.0000 H   0  0  0  0  0  0  0  0  0  0  0  0
    2.3267   -4.6679    0.0000 H   0  0  0  0  0  0  0  0  0  0  0  0
    3.7066   -5.7790    0.0000 H   0  0  0  0  0  0  0  0  0  0  0  0
    1.0383   -6.3235    0.0000 H   0  0  0  0  0  0  0  0  0  0  0  0
    0.6573   -5.8016    0.0000 H   0  0  0  0  0  0  0  0  0  0  0  0
    1.2275   -5.0844    0.0000 H   0  0  0  0  0  0  0  0  0  0  0  0
    2.9575   -7.1201    0.0000 H   0  0  0  0  0  0  0  0  0  0  0  0
    2.6594   -7.7018    0.0000 H   0  0  0  0  0  0  0  0  0  0  0  0
    1.7640   -7.5098    0.0000 H   0  0  0  0  0  0  0  0  0  0  0  0
    4.0748   -1.1669    0.0000 H   0  0  0  0  0  0  0  0  0  0  0  0
    6.7042    0.2759    0.0000 H   0  0  0  0  0  0  0  0  0  0  0  0
    4.8343    0.1132    0.0000 H   0  0  0  0  0  0  0  0  0  0  0  0
    4.8407    0.9499    0.0000 H   0  0  0  0  0  0  0  0  0  0  0  0
    4.4298    1.8770    0.0000 H   0  0  0  0  0  0  0  0  0  0  0  0
    3.3713    3.6896    0.0000 H   0  0  0  0  0  0  0  0  0  0  0  0
    3.7360    4.4326    0.0000 H   0  0  0  0  0  0  0  0  0  0  0  0
    5.5085    5.1918    0.0000 H   0  0  0  0  0  0  0  0  0  0  0  0
    4.5491    5.7244    0.0000 H   0  0  0  0  0  0  0  0  0  0  0  0
    6.8655    3.7740    0.0000 H   0  0  0  0  0  0  0  0  0  0  0  0
    6.8346    4.8312    0.0000 H   0  0  0  0  0  0  0  0  0  0  0  0
    6.2988    1.9102    0.0000 H   0  0  0  0  0  0  0  0  0  0  0  0
    7.1715    2.4242    0.0000 H   0  0  0  0  0  0  0  0  0  0  0  0
    7.7349   -1.4219    0.0000 H   0  0  0  0  0  0  0  0  0  0  0  0
    7.9144   -0.3621    0.0000 H   0  0  0  0  0  0  0  0  0  0  0  0
    6.7560   -3.0839    0.0000 H   0  0  0  0  0  0  0  0  0  0  0  0
    7.6908   -2.8024    0.0000 H   0  0  0  0  0  0  0  0  0  0  0  0
    4.7865   -2.8230    0.0000 H   0  0  0  0  0  0  0  0  0  0  0  0
    5.6076   -3.8807    0.0000 H   0  0  0  0  0  0  0  0  0  0  0  0
  1  2  1  1
  2  3  1  0
  3  4  1  0
  4  5  1  0
  5  6  1  1
  5  7  1  0
  7  8  1  6
  7  9  1  0
  9 10  1  0
  9 11  1  0
 11 12  1  0
 12 13  1  1
 12 14  1  0
 14 15  1  6
 14 16  1  0
 16 17  1  0
 17 18  1  0
 18 19  1  0
 19 20  1  0
 20 21  1  0
 21 22  1  0
 22 23  1  0
 23 24  1  0
 22 25  1  0
 25 26  1  0
 25 27  1  0
 27 28  1  0
 27 29  1  0
 29 30  1  0
 30 31  1  0
 31 32  1  0
 32 33  1  0
 33 34  1  0
 34 35  1  0
 33 36  1  0
 36 37  1  0
 36 38  1  0
 38 39  1  0
 38 40  1  0
 40 41  1  0
 18 42  1  0
 42 43  1  0
 42 44  1  0
 42 45  1  0
 45 46  1  1
 45 47  1  0
 47 48  1  0
 48 49  1  0
 49 50  1  6
  2 51  1  0
 51 52  1  0
 51 53  1  0
 53 54  1  0
 54 55  1  0
 55 56  2  3
 56 57  1  0
 56 58  1  0
 51 59  1  6
 59 60  1  0
 60 61  1  0
 61 62  1  0
 62 63  1  0
 63 64  1  0
 64 65  1  0
 65 66  1  0
 66 67  1  0
 67 68  1  0
 68 69  1  0
 68 70  1  0
 70 71  1  0
 70 72  1  0
 72 73  1  0
 62 74  1  0
 74 75  1  0
 74 76  1  0
 76 77  1  0
 76 78  1  0
 78 79  1  0
  7  2  1  0
 49 12  1  0
 78 60  1  0
 49  5  1  0
 72 65  1  0
 45 14  1  0
 29 20  1  0
 40 31  1  0
  3 80  1  0
  3 81  1  0
  4 82  1  0
  4 83  1  0
  6 84  1  0
  6 85  1  0
  6 86  1  0
  9 87  1  1
 10 88  1  0
 11 89  1  0
 11 90  1  0
 15 91  1  0
 15 92  1  0
 15 93  1  0
 16 94  1  0
 16 95  1  0
 17 96  1  0
 17 97  1  0
 18 98  1  1
 20 99  1  1
 22100  1  1
 23101  1  0
 23102  1  0
 24103  1  0
 25104  1  6
 26105  1  0
 27106  1  1
 28107  1  0
 29108  1  6
 31109  1  1
 33110  1  1
 34111  1  0
 34112  1  0
 35113  1  0
 36114  1  6
 37115  1  0
 38116  1  1
 39117  1  0
 40118  1  6
 41119  1  0
 43120  1  0
 43121  1  0
 43122  1  0
 44123  1  0
 44124  1  0
 44125  1  0
 47126  1  0
 47127  1  0
 48128  1  0
 48129  1  0
 50130  1  0
 50131  1  0
 50132  1  0
 52133  1  0
 52134  1  0
 52135  1  0
 53136  1  0
 53137  1  0
 54138  1  0
 54139  1  0
 55140  1  0
 57141  1  0
 57142  1  0
 57143  1  0
 58144  1  0
 58145  1  0
 58146  1  0
 60147  1  1
 62148  1  1
 63149  1  0
 63150  1  0
 65151  1  1
 67152  1  0
 67153  1  0
 68154  1  1
 69155  1  0
 70156  1  1
 71157  1  0
 72158  1  6
 73159  1  0
 74160  1  6
 75161  1  0
 76162  1  1
 77163  1  0
 78164  1  6
 79165  1  0
M  END
$$$$
