Created with the Wolfram Language for Students - Personal Use Only : www.wolfram.com
     WL             3D

 21 21  0  0  0  0  0  0  0  0999 V2000
   -3.2897    0.6798    0.2015 C   0  0  0  0  0  0  0  0  0  0  0  0
   -1.7969    0.6998    0.0521 C   0  0  0  0  0  0  0  0  0  0  0  0
   -1.2098    1.9172   -0.0472 N   0  0  0  0  0  0  0  0  0  0  0  0
    0.1340    1.9575   -0.1779 C   0  0  0  0  0  0  0  0  0  0  0  0
    0.9595    0.8390   -0.2279 C   0  0  0  0  0  0  0  0  0  0  0  0
    2.4348    1.0301   -0.4014 C   0  0  0  0  0  0  0  0  0  0  0  0
    3.1079    0.4872    0.7221 O   0  0  0  0  0  0  0  0  0  0  0  0
    0.3293   -0.4108   -0.1234 C   0  0  0  0  0  0  0  0  0  0  0  0
    1.1195   -1.6625   -0.1672 C   0  0  0  0  0  0  0  0  0  0  0  0
    0.5636   -2.7583   -0.1254 O   0  0  0  0  0  0  0  0  0  0  0  0
   -1.0650   -0.4838    0.0174 C   0  0  0  0  0  0  0  0  0  0  0  0
   -1.7415   -1.6719    0.1183 O   0  0  0  0  0  0  0  0  0  0  0  0
   -3.5716    0.1968    1.1423 H   0  0  0  0  0  0  0  0  0  0  0  0
   -3.7488    0.1429   -0.6344 H   0  0  0  0  0  0  0  0  0  0  0  0
   -3.6926    1.6979    0.2109 H   0  0  0  0  0  0  0  0  0  0  0  0
    0.5389    2.9652   -0.2443 H   0  0  0  0  0  0  0  0  0  0  0  0
    2.6954    2.0914   -0.4767 H   0  0  0  0  0  0  0  0  0  0  0  0
    2.7817    0.5317   -1.3127 H   0  0  0  0  0  0  0  0  0  0  0  0
    4.0418    0.7534    0.6555 H   0  0  0  0  0  0  0  0  0  0  0  0
    2.2138   -1.5956   -0.2520 H   0  0  0  0  0  0  0  0  0  0  0  0
   -1.0861   -2.4052    0.0717 H   0  0  0  0  0  0  0  0  0  0  0  0
  1  2  1  0
  2  3  2  0
  3  4  1  0
  4  5  2  0
  5  6  1  0
  6  7  1  0
  5  8  1  0
  8  9  1  0
  9 10  2  0
  8 11  2  0
 11 12  1  0
 11  2  1  0
  1 13  1  0
  1 14  1  0
  1 15  1  0
  4 16  1  0
  6 17  1  0
  6 18  1  0
  7 19  1  0
  9 20  1  0
 12 21  1  0
M  END
$$$$
