Created with the Wolfram Language for Students - Personal Use Only : www.wolfram.com
     WL             3D

 29 30  0  0  0  0  0  0  0  0999 V2000
   -2.3598   -1.4024    0.0000 C   0  0  0  0  0  0  0  0  0  0  0  0
   -1.2049   -0.4063    0.0000 C   0  0  0  0  0  0  0  0  0  0  0  0
   -1.2329    0.4733    1.2647 C   0  0  0  0  0  0  0  0  0  0  0  0
   -0.0643    1.4650    1.2308 C   0  0  0  0  0  0  0  0  0  0  0  0
    0.8128    1.1652   -0.0000 C   0  0  0  0  0  0  0  0  0  0  0  0
   -0.0643    1.4649   -1.2309 C   0  0  0  0  0  0  0  0  0  0  0  0
   -1.2329    0.4732   -1.2648 C   0  0  0  0  0  0  0  0  0  0  0  0
    1.2082   -0.3408    0.0000 C   0  0  0  0  0  0  0  0  0  0  0  0
    2.0270   -0.7248   -1.2418 C   0  0  0  0  0  0  0  0  0  0  0  0
    2.0270   -0.7247    1.2418 C   0  0  0  0  0  0  0  0  0  0  0  0
    0.0223   -1.1639    0.0001 O   0  0  0  0  0  0  0  0  0  0  0  0
   -2.3093   -2.0568    0.8777 H   0  0  0  0  0  0  0  0  0  0  0  0
   -3.3301   -0.8956    0.0000 H   0  0  0  0  0  0  0  0  0  0  0  0
   -2.3093   -2.0568   -0.8775 H   0  0  0  0  0  0  0  0  0  0  0  0
   -1.1368   -0.1533    2.1602 H   0  0  0  0  0  0  0  0  0  0  0  0
   -2.1816    1.0165    1.3478 H   0  0  0  0  0  0  0  0  0  0  0  0
    0.5147    1.4053    2.1587 H   0  0  0  0  0  0  0  0  0  0  0  0
   -0.4484    2.4916    1.1845 H   0  0  0  0  0  0  0  0  0  0  0  0
    1.6975    1.8115   -0.0001 H   0  0  0  0  0  0  0  0  0  0  0  0
    0.5147    1.4052   -2.1588 H   0  0  0  0  0  0  0  0  0  0  0  0
   -0.4485    2.4916   -1.1846 H   0  0  0  0  0  0  0  0  0  0  0  0
   -1.1367   -0.1535   -2.1602 H   0  0  0  0  0  0  0  0  0  0  0  0
   -2.1816    1.0163   -1.3480 H   0  0  0  0  0  0  0  0  0  0  0  0
    2.3469   -1.7723   -1.1878 H   0  0  0  0  0  0  0  0  0  0  0  0
    1.4370   -0.6501   -2.1606 H   0  0  0  0  0  0  0  0  0  0  0  0
    2.9188   -0.0980   -1.3426 H   0  0  0  0  0  0  0  0  0  0  0  0
    2.9188   -0.0978    1.3426 H   0  0  0  0  0  0  0  0  0  0  0  0
    1.4371   -0.6500    2.1606 H   0  0  0  0  0  0  0  0  0  0  0  0
    2.3470   -1.7722    1.1879 H   0  0  0  0  0  0  0  0  0  0  0  0
  1  2  1  0
  2  3  1  0
  3  4  1  0
  4  5  1  0
  5  6  1  0
  6  7  1  0
  5  8  1  0
  8  9  1  0
  8 10  1  0
  8 11  1  0
  7  2  1  0
 11  2  1  0
  1 12  1  0
  1 13  1  0
  1 14  1  0
  3 15  1  0
  3 16  1  0
  4 17  1  0
  4 18  1  0
  5 19  1  0
  6 20  1  0
  6 21  1  0
  7 22  1  0
  7 23  1  0
  9 24  1  0
  9 25  1  0
  9 26  1  0
 10 27  1  0
 10 28  1  0
 10 29  1  0
M  END
$$$$
