Created with the Wolfram Language for Students - Personal Use Only : www.wolfram.com
     WL             3D

 53 58  0  0  0  0  0  0  0  0999 V2000
    3.7571    0.2244    1.9623 C   0  0  0  0  0  0  0  0  0  0  0  0
    2.9719   -0.2564    0.7530 C   0  0  2  0  0  0  0  0  0  0  0  0
    3.8710   -0.7901   -0.3350 C   0  0  0  0  0  0  0  0  0  0  0  0
    4.8863   -1.4455   -0.1655 O   0  0  0  0  0  0  0  0  0  0  0  0
    3.3483   -0.5104   -1.5673 O   0  0  0  0  0  0  0  0  0  0  0  0
    2.1846    0.2939   -1.4209 C   0  0  1  0  0  0  0  0  0  0  0  0
    0.9133   -0.5476   -1.5127 C   0  0  0  0  0  0  0  0  0  0  0  0
   -0.1209    0.2567   -0.7197 C   0  0  1  0  0  0  0  0  0  0  0  0
   -0.7584    1.3688   -1.5492 C   0  0  1  0  0  0  0  0  0  0  0  0
   -2.2609    1.1435   -1.4454 C   0  0  0  0  0  0  0  0  0  0  0  0
   -2.4513    0.5738   -0.0265 C   0  0  1  0  0  0  0  0  0  0  0  0
   -3.9415    0.2087    0.3150 C   0  0  0  0  0  0  0  0  0  0  0  0
   -4.0599   -0.4703    1.6929 C   0  0  0  0  0  0  0  0  0  0  0  0
   -4.6551   -0.6494   -0.7481 C   0  0  0  0  0  0  0  0  0  0  0  0
   -4.7545    1.5302    0.4156 C   0  0  0  0  0  0  0  0  0  0  0  0
   -1.2650   -0.4474    0.0665 C   0  0  1  0  0  0  0  0  0  0  0  0
   -1.5616   -1.8896   -0.2957 C   0  0  1  0  0  0  0  0  0  0  0  0
   -1.5612   -2.0871   -1.6901 O   0  0  0  0  0  0  0  0  0  0  0  0
   -0.5242   -2.6534    0.5060 C   0  0  0  0  0  0  0  0  0  0  0  0
   -0.1626   -3.7952    0.2748 O   0  0  0  0  0  0  0  0  0  0  0  0
   -0.0429   -1.8717    1.5083 O   0  0  0  0  0  0  0  0  0  0  0  0
   -0.6556   -0.5851    1.4515 C   0  0  1  0  0  0  0  0  0  0  0  0
    0.3387    0.4318    1.6146 O   0  0  0  0  0  0  0  0  0  0  0  0
    0.6904    0.9840    0.3498 C   0  0  2  0  0  0  0  0  0  0  0  0
    0.2602    2.4336    0.2184 C   0  0  0  0  0  0  0  0  0  0  0  0
    0.5061    3.3215    1.0205 O   0  0  0  0  0  0  0  0  0  0  0  0
   -0.4404    2.6169   -0.9306 O   0  0  0  0  0  0  0  0  0  0  0  0
    2.1945    0.8270    0.0068 C   0  0  1  0  0  0  0  0  0  0  0  0
    2.9218    2.0564    0.0335 O   0  0  0  0  0  0  0  0  0  0  0  0
    4.5579    0.9178    1.6833 H   0  0  0  0  0  0  0  0  0  0  0  0
    3.1003    0.7203    2.6838 H   0  0  0  0  0  0  0  0  0  0  0  0
    4.2338   -0.6227    2.4679 H   0  0  0  0  0  0  0  0  0  0  0  0
    2.3291   -1.0926    1.0427 H   0  0  0  0  0  0  0  0  0  0  0  0
    2.2045    1.0937   -2.1697 H   0  0  0  0  0  0  0  0  0  0  0  0
    1.1016   -1.5391   -1.0933 H   0  0  0  0  0  0  0  0  0  0  0  0
    0.6231   -0.7067   -2.5568 H   0  0  0  0  0  0  0  0  0  0  0  0
   -0.4326    1.4082   -2.5931 H   0  0  0  0  0  0  0  0  0  0  0  0
   -2.8136    2.0758   -1.5916 H   0  0  0  0  0  0  0  0  0  0  0  0
   -2.5745    0.4205   -2.2053 H   0  0  0  0  0  0  0  0  0  0  0  0
   -2.2037    1.3826    0.6786 H   0  0  0  0  0  0  0  0  0  0  0  0
   -5.1103   -0.6320    1.9632 H   0  0  0  0  0  0  0  0  0  0  0  0
   -3.5744   -1.4473    1.7267 H   0  0  0  0  0  0  0  0  0  0  0  0
   -3.6181    0.1542    2.4774 H   0  0  0  0  0  0  0  0  0  0  0  0
   -5.6891   -0.8572   -0.4460 H   0  0  0  0  0  0  0  0  0  0  0  0
   -4.1809   -1.6160   -0.9144 H   0  0  0  0  0  0  0  0  0  0  0  0
   -4.7097   -0.1359   -1.7137 H   0  0  0  0  0  0  0  0  0  0  0  0
   -5.7887    1.3361    0.7244 H   0  0  0  0  0  0  0  0  0  0  0  0
   -4.8001    2.0555   -0.5437 H   0  0  0  0  0  0  0  0  0  0  0  0
   -4.3161    2.2124    1.1528 H   0  0  0  0  0  0  0  0  0  0  0  0
   -2.5136   -2.2407    0.1001 H   0  0  0  0  0  0  0  0  0  0  0  0
   -1.5380   -3.0543   -1.8389 H   0  0  0  0  0  0  0  0  0  0  0  0
   -1.3665   -0.5110    2.2773 H   0  0  0  0  0  0  0  0  0  0  0  0
    2.7621    2.5106    0.8867 H   0  0  0  0  0  0  0  0  0  0  0  0
  1  2  1  0
  2  3  1  0
  3  4  2  0
  3  5  1  0
  5  6  1  0
  6  7  1  0
  8  7  1  6
  8  9  1  0
  9 10  1  0
 10 11  1  0
 11 12  1  0
 12 13  1  0
 12 14  1  0
 12 15  1  0
 11 16  1  0
 16 17  1  0
 17 18  1  0
 17 19  1  0
 19 20  2  0
 19 21  1  0
 21 22  1  0
 22 23  1  0
 24 23  1  1
 24 25  1  0
 25 26  2  0
 25 27  1  0
 24 28  1  0
 28 29  1  6
 28  2  1  0
 28  6  1  0
 16  8  1  6
 22 16  1  0
 24  8  1  0
 27  9  1  0
  1 30  1  0
  1 31  1  0
  1 32  1  0
  2 33  1  1
  6 34  1  6
  7 35  1  0
  7 36  1  0
  9 37  1  6
 10 38  1  0
 10 39  1  0
 11 40  1  1
 13 41  1  0
 13 42  1  0
 13 43  1  0
 14 44  1  0
 14 45  1  0
 14 46  1  0
 15 47  1  0
 15 48  1  0
 15 49  1  0
 17 50  1  1
 18 51  1  0
 22 52  1  1
 29 53  1  0
M  END
$$$$
