Created with the Wolfram Language for Students - Personal Use Only : www.wolfram.com
     WL             3D

 58 57  0  0  0  0  0  0  0  0999 V2000
    9.0240   -1.0734   -0.1400 C   0  0  0  0  0  0  0  0  0  0  0  0
    7.7717   -0.7660   -0.9458 C   0  0  0  0  0  0  0  0  0  0  0  0
    7.2969    0.6822   -0.8066 C   0  0  0  0  0  0  0  0  0  0  0  0
    6.9330    1.1272    0.6138 C   0  0  0  0  0  0  0  0  0  0  0  0
    5.8711    0.2827    1.3245 C   0  0  0  0  0  0  0  0  0  0  0  0
    4.5247    0.2593    0.5965 C   0  0  0  0  0  0  0  0  0  0  0  0
    3.4780   -0.5189    1.3982 C   0  0  0  0  0  0  0  0  0  0  0  0
    2.0835   -0.4953    0.7632 C   0  0  0  0  0  0  0  0  0  0  0  0
    2.0248   -1.1989   -0.5926 C   0  0  0  0  0  0  0  0  0  0  0  0
    0.6033   -1.4269   -1.1205 C   0  0  0  0  0  0  0  0  0  0  0  0
   -0.1806   -0.1454   -1.4249 C   0  0  0  0  0  0  0  0  0  0  0  0
   -1.1099    0.2757   -0.2816 C   0  0  0  0  0  0  0  0  0  0  0  0
   -1.8905    1.5421   -0.6439 C   0  0  0  0  0  0  0  0  0  0  0  0
   -2.7485    2.0835    0.5065 C   0  0  0  0  0  0  0  0  0  0  0  0
   -3.8642    1.1493    0.9737 C   0  0  0  0  0  0  0  0  0  0  0  0
   -4.9707    0.9621   -0.0485 C   0  0  0  0  0  0  0  0  0  0  0  0
   -5.1109    1.6660   -1.0420 O   0  0  0  0  0  0  0  0  0  0  0  0
   -5.8200   -0.0746    0.2703 N   0  0  0  0  0  0  0  0  0  0  0  0
   -7.0442   -0.2978   -0.4775 C   0  0  0  0  0  0  0  0  0  0  0  0
   -7.5899   -1.7000   -0.2255 C   0  0  0  0  0  0  0  0  0  0  0  0
   -7.8322   -1.8766    1.1711 O   0  0  0  0  0  0  0  0  0  0  0  0
    9.8350   -0.3843   -0.3960 H   0  0  0  0  0  0  0  0  0  0  0  0
    8.8367   -1.0037    0.9354 H   0  0  0  0  0  0  0  0  0  0  0  0
    9.3658   -2.0916   -0.3514 H   0  0  0  0  0  0  0  0  0  0  0  0
    6.9731   -1.4597   -0.6610 H   0  0  0  0  0  0  0  0  0  0  0  0
    7.9837   -0.9580   -2.0046 H   0  0  0  0  0  0  0  0  0  0  0  0
    6.4351    0.8330   -1.4672 H   0  0  0  0  0  0  0  0  0  0  0  0
    8.0825    1.3492   -1.1837 H   0  0  0  0  0  0  0  0  0  0  0  0
    7.8385    1.1408    1.2322 H   0  0  0  0  0  0  0  0  0  0  0  0
    6.5854    2.1671    0.5689 H   0  0  0  0  0  0  0  0  0  0  0  0
    6.2358   -0.7412    1.4649 H   0  0  0  0  0  0  0  0  0  0  0  0
    5.7268    0.6977    2.3300 H   0  0  0  0  0  0  0  0  0  0  0  0
    4.1759    1.2863    0.4358 H   0  0  0  0  0  0  0  0  0  0  0  0
    4.6487   -0.2030   -0.3878 H   0  0  0  0  0  0  0  0  0  0  0  0
    3.4022   -0.0874    2.4040 H   0  0  0  0  0  0  0  0  0  0  0  0
    3.8063   -1.5577    1.5249 H   0  0  0  0  0  0  0  0  0  0  0  0
    1.3864   -0.9842    1.4544 H   0  0  0  0  0  0  0  0  0  0  0  0
    1.7592    0.5461    0.6580 H   0  0  0  0  0  0  0  0  0  0  0  0
    2.5904   -0.6254   -1.3360 H   0  0  0  0  0  0  0  0  0  0  0  0
    2.5148   -2.1771   -0.5113 H   0  0  0  0  0  0  0  0  0  0  0  0
    0.6990   -1.9910   -2.0575 H   0  0  0  0  0  0  0  0  0  0  0  0
    0.0446   -2.0717   -0.4316 H   0  0  0  0  0  0  0  0  0  0  0  0
   -0.8011   -0.3287   -2.3117 H   0  0  0  0  0  0  0  0  0  0  0  0
    0.5030    0.6709   -1.6862 H   0  0  0  0  0  0  0  0  0  0  0  0
   -0.5371    0.4532    0.6334 H   0  0  0  0  0  0  0  0  0  0  0  0
   -1.8062   -0.5443   -0.0731 H   0  0  0  0  0  0  0  0  0  0  0  0
   -1.1804    2.3273   -0.9327 H   0  0  0  0  0  0  0  0  0  0  0  0
   -2.5152    1.3501   -1.5237 H   0  0  0  0  0  0  0  0  0  0  0  0
   -2.0957    2.3021    1.3604 H   0  0  0  0  0  0  0  0  0  0  0  0
   -3.1818    3.0417    0.1942 H   0  0  0  0  0  0  0  0  0  0  0  0
   -3.4621    0.1725    1.2612 H   0  0  0  0  0  0  0  0  0  0  0  0
   -4.3298    1.5833    1.8674 H   0  0  0  0  0  0  0  0  0  0  0  0
   -5.8287   -0.4120    1.2265 H   0  0  0  0  0  0  0  0  0  0  0  0
   -6.8566   -0.1421   -1.5446 H   0  0  0  0  0  0  0  0  0  0  0  0
   -7.7606    0.4574   -0.1358 H   0  0  0  0  0  0  0  0  0  0  0  0
   -6.8707   -2.4607   -0.5459 H   0  0  0  0  0  0  0  0  0  0  0  0
   -8.5309   -1.8444   -0.7647 H   0  0  0  0  0  0  0  0  0  0  0  0
   -8.2092   -2.7675    1.2791 H   0  0  0  0  0  0  0  0  0  0  0  0
  1  2  1  0
  2  3  1  0
  3  4  1  0
  4  5  1  0
  5  6  1  0
  6  7  1  0
  7  8  1  0
  8  9  1  0
  9 10  1  0
 10 11  1  0
 11 12  1  0
 12 13  1  0
 13 14  1  0
 14 15  1  0
 15 16  1  0
 16 17  2  0
 16 18  1  0
 18 19  1  0
 19 20  1  0
 20 21  1  0
  1 22  1  0
  1 23  1  0
  1 24  1  0
  2 25  1  0
  2 26  1  0
  3 27  1  0
  3 28  1  0
  4 29  1  0
  4 30  1  0
  5 31  1  0
  5 32  1  0
  6 33  1  0
  6 34  1  0
  7 35  1  0
  7 36  1  0
  8 37  1  0
  8 38  1  0
  9 39  1  0
  9 40  1  0
 10 41  1  0
 10 42  1  0
 11 43  1  0
 11 44  1  0
 12 45  1  0
 12 46  1  0
 13 47  1  0
 13 48  1  0
 14 49  1  0
 14 50  1  0
 15 51  1  0
 15 52  1  0
 18 53  1  0
 19 54  1  0
 19 55  1  0
 20 56  1  0
 20 57  1  0
 21 58  1  0
M  END
$$$$
