Created with the Wolfram Language for Students - Personal Use Only : www.wolfram.com
     WL             2D

169176  0  0  0  0  0  0  0  0999 V2000
    3.4802   -0.2344    0.0000 H   0  0  0  0  0  0  0  0  0  0  0  0
    3.0125   -0.2553    0.0000 C   0  0  0  0  0  0  0  0  0  0  0  0
    3.1741    0.7398    0.0000 C   0  0  0  0  0  0  0  0  0  0  0  0
    2.2793    1.1625    0.0000 C   0  0  0  0  0  0  0  0  0  0  0  0
    1.5900    0.4723    0.0000 C   0  0  0  0  0  0  0  0  0  0  0  0
    0.3837    2.4917    0.0000 C   0  0  0  0  0  0  0  0  0  0  0  0
    2.0978   -0.4198    0.0000 C   0  0  0  0  0  0  0  0  0  0  0  0
    2.4497   -0.8594    0.0000 H   0  0  0  0  0  0  0  0  0  0  0  0
    1.5237   -1.4464    0.0000 C   0  0  0  0  0  0  0  0  0  0  0  0
    1.4246   -2.5932    0.0000 O   0  0  0  0  0  0  0  0  0  0  0  0
    0.4810   -1.5292    0.0000 C   0  0  0  0  0  0  0  0  0  0  0  0
   -0.0760   -0.7086    0.0000 C   0  0  0  0  0  0  0  0  0  0  0  0
   -0.4291   -1.1633    0.0000 H   0  0  0  0  0  0  0  0  0  0  0  0
   -1.2461   -0.8383    0.0000 C   0  0  0  0  0  0  0  0  0  0  0  0
   -0.6932   -2.6005    0.0000 C   0  0  0  0  0  0  0  0  0  0  0  0
   -1.7914   -1.9620    0.0000 C   0  0  0  0  0  0  0  0  0  0  0  0
   -2.8840   -2.0854    0.0000 C   0  0  0  0  0  0  0  0  0  0  0  0
   -3.4271   -1.2628    0.0000 C   0  0  0  0  0  0  0  0  0  0  0  0
   -4.0673   -0.7837    0.0000 O   0  0  0  0  0  0  0  0  0  0  0  0
   -5.0699   -0.8916    0.0000 C   0  0  0  0  0  0  0  0  0  0  0  0
   -5.6634   -1.6128    0.0000 O   0  0  0  0  0  0  0  0  0  0  0  0
   -6.5731   -1.3850    0.0000 C   0  0  0  0  0  0  0  0  0  0  0  0
   -6.6620   -2.3783    0.0000 C   0  0  0  0  0  0  0  0  0  0  0  0
   -7.5863   -2.7760    0.0000 O   0  0  0  0  0  0  0  0  0  0  0  0
   -6.9531   -0.3050    0.0000 C   0  0  0  0  0  0  0  0  0  0  0  0
   -7.7975   -0.7721    0.0000 O   0  0  0  0  0  0  0  0  0  0  0  0
   -6.3245    0.4117    0.0000 C   0  0  0  0  0  0  0  0  0  0  0  0
   -7.1891    1.1719    0.0000 O   0  0  0  0  0  0  0  0  0  0  0  0
   -5.4240    0.2333    0.0000 C   0  0  0  0  0  0  0  0  0  0  0  0
   -5.1776    1.4186    0.0000 O   0  0  0  0  0  0  0  0  0  0  0  0
   -5.7766    2.3542    0.0000 C   0  0  0  0  0  0  0  0  0  0  0  0
   -6.6175    2.8273    0.0000 O   0  0  0  0  0  0  0  0  0  0  0  0
   -6.6543    3.8119    0.0000 C   0  0  0  0  0  0  0  0  0  0  0  0
   -7.6799    3.4565    0.0000 C   0  0  0  0  0  0  0  0  0  0  0  0
   -8.4551    4.0651    0.0000 O   0  0  0  0  0  0  0  0  0  0  0  0
   -5.7482    4.3549    0.0000 C   0  0  0  0  0  0  0  0  0  0  0  0
   -6.4219    5.0756    0.0000 O   0  0  0  0  0  0  0  0  0  0  0  0
   -4.8788    3.9131    0.0000 C   0  0  0  0  0  0  0  0  0  0  0  0
   -4.5442    4.7860    0.0000 O   0  0  0  0  0  0  0  0  0  0  0  0
   -4.8781    2.9207    0.0000 C   0  0  0  0  0  0  0  0  0  0  0  0
   -3.8934    3.0871    0.0000 O   0  0  0  0  0  0  0  0  0  0  0  0
   -2.9218   -0.1937    0.0000 C   0  0  0  0  0  0  0  0  0  0  0  0
   -2.9356    1.1857    0.0000 C   0  0  0  0  0  0  0  0  0  0  0  0
   -3.6650    0.0823    0.0000 C   0  0  0  0  0  0  0  0  0  0  0  0
   -1.7903   -0.0941    0.0000 C   0  0  0  0  0  0  0  0  0  0  0  0
   -2.2113    0.3565    0.0000 H   0  0  0  0  0  0  0  0  0  0  0  0
   -1.2117    1.1222    0.0000 C   0  0  0  0  0  0  0  0  0  0  0  0
   -0.1335    1.2608    0.0000 C   0  0  0  0  0  0  0  0  0  0  0  0
    0.4310    0.4385    0.0000 C   0  0  0  0  0  0  0  0  0  0  0  0
    1.4008    2.0008    0.0000 C   0  0  0  0  0  0  0  0  0  0  0  0
    3.4315   -2.2085    0.0000 C   0  0  0  0  0  0  0  0  0  0  0  0
    2.6284   -2.6327    0.0000 C   0  0  0  0  0  0  0  0  0  0  0  0
    3.6919   -3.7566    0.0000 C   0  0  0  0  0  0  0  0  0  0  0  0
    2.8387   -4.6436    0.0000 C   0  0  0  0  0  0  0  0  0  0  0  0
    2.9860   -5.6545    0.0000 C   0  0  0  0  0  0  0  0  0  0  0  0
    2.1162   -6.2728    0.0000 C   0  0  0  0  0  0  0  0  0  0  0  0
    1.1797   -5.8475    0.0000 C   0  0  0  0  0  0  0  0  0  0  0  0
    2.1737   -7.2823    0.0000 C   0  0  0  0  0  0  0  0  0  0  0  0
    4.2879   -2.2856    0.0000 O   0  0  0  0  0  0  0  0  0  0  0  0
    4.7303   -1.7933    0.0000 C   0  0  0  0  0  0  0  0  0  0  0  0
    4.9723   -0.8765    0.0000 O   0  0  0  0  0  0  0  0  0  0  0  0
    5.9202   -0.5869    0.0000 C   0  0  0  0  0  0  0  0  0  0  0  0
    5.2931    0.3347    0.0000 C   0  0  0  0  0  0  0  0  0  0  0  0
    5.6736    1.2814    0.0000 O   0  0  0  0  0  0  0  0  0  0  0  0
    4.9478    2.2353    0.0000 C   0  0  0  0  0  0  0  0  0  0  0  0
    4.0536    2.8218    0.0000 O   0  0  0  0  0  0  0  0  0  0  0  0
    4.0726    3.8497    0.0000 C   0  0  0  0  0  0  0  0  0  0  0  0
    3.0946    3.7372    0.0000 C   0  0  0  0  0  0  0  0  0  0  0  0
    2.5186    4.5546    0.0000 O   0  0  0  0  0  0  0  0  0  0  0  0
    5.0114    4.3153    0.0000 C   0  0  0  0  0  0  0  0  0  0  0  0
    4.4693    5.1188    0.0000 O   0  0  0  0  0  0  0  0  0  0  0  0
    5.9249    3.7639    0.0000 C   0  0  0  0  0  0  0  0  0  0  0  0
    6.3182    4.6284    0.0000 O   0  0  0  0  0  0  0  0  0  0  0  0
    5.8662    2.7361    0.0000 C   0  0  0  0  0  0  0  0  0  0  0  0
    6.8107    2.7930    0.0000 O   0  0  0  0  0  0  0  0  0  0  0  0
    6.6534   -1.3037    0.0000 C   0  0  0  0  0  0  0  0  0  0  0  0
    7.1982   -0.4928    0.0000 O   0  0  0  0  0  0  0  0  0  0  0  0
    6.4445   -2.2437    0.0000 C   0  0  0  0  0  0  0  0  0  0  0  0
    7.3690   -2.3721    0.0000 O   0  0  0  0  0  0  0  0  0  0  0  0
    5.4844   -2.4967    0.0000 C   0  0  0  0  0  0  0  0  0  0  0  0
    5.8653   -3.4968    0.0000 O   0  0  0  0  0  0  0  0  0  0  0  0
    3.7886    0.5280    0.0000 H   0  0  0  0  0  0  0  0  0  0  0  0
    3.4478    1.3293    0.0000 H   0  0  0  0  0  0  0  0  0  0  0  0
    2.6854    1.6700    0.0000 H   0  0  0  0  0  0  0  0  0  0  0  0
    1.9109    1.3399    0.0000 H   0  0  0  0  0  0  0  0  0  0  0  0
    0.6527    3.0834    0.0000 H   0  0  0  0  0  0  0  0  0  0  0  0
    0.2379    3.1252    0.0000 H   0  0  0  0  0  0  0  0  0  0  0  0
   -0.2598    2.5836    0.0000 H   0  0  0  0  0  0  0  0  0  0  0  0
    2.5259   -1.7172    0.0000 H   0  0  0  0  0  0  0  0  0  0  0  0
    0.9090   -2.9890    0.0000 H   0  0  0  0  0  0  0  0  0  0  0  0
   -0.0221   -1.8424    0.0000 H   0  0  0  0  0  0  0  0  0  0  0  0
    0.6716   -2.1395    0.0000 H   0  0  0  0  0  0  0  0  0  0  0  0
   -0.0463   -2.6637    0.0000 H   0  0  0  0  0  0  0  0  0  0  0  0
   -0.2968   -3.1157    0.0000 H   0  0  0  0  0  0  0  0  0  0  0  0
   -1.0766   -3.1254    0.0000 H   0  0  0  0  0  0  0  0  0  0  0  0
   -1.9325   -2.5965    0.0000 H   0  0  0  0  0  0  0  0  0  0  0  0
   -1.5200   -2.3387    0.0000 H   0  0  0  0  0  0  0  0  0  0  0  0
   -3.4684   -2.3699    0.0000 H   0  0  0  0  0  0  0  0  0  0  0  0
   -2.8194   -2.7322    0.0000 H   0  0  0  0  0  0  0  0  0  0  0  0
   -4.0078   -1.7517    0.0000 H   0  0  0  0  0  0  0  0  0  0  0  0
   -4.8071   -1.6566    0.0000 H   0  0  0  0  0  0  0  0  0  0  0  0
   -7.5746   -1.5484    0.0000 H   0  0  0  0  0  0  0  0  0  0  0  0
   -6.0152   -2.4418    0.0000 H   0  0  0  0  0  0  0  0  0  0  0  0
   -6.4018   -2.9739    0.0000 H   0  0  0  0  0  0  0  0  0  0  0  0
   -7.6719   -3.4203    0.0000 H   0  0  0  0  0  0  0  0  0  0  0  0
   -7.5377    0.3004    0.0000 H   0  0  0  0  0  0  0  0  0  0  0  0
   -8.3450   -0.4217    0.0000 H   0  0  0  0  0  0  0  0  0  0  0  0
   -6.0640    1.1626    0.0000 H   0  0  0  0  0  0  0  0  0  0  0  0
   -7.8301    1.0643    0.0000 H   0  0  0  0  0  0  0  0  0  0  0  0
   -4.7123    0.7217    0.0000 H   0  0  0  0  0  0  0  0  0  0  0  0
   -6.6217    1.7471    0.0000 H   0  0  0  0  0  0  0  0  0  0  0  0
   -7.1242    4.6964    0.0000 H   0  0  0  0  0  0  0  0  0  0  0  0
   -7.4810    2.8377    0.0000 H   0  0  0  0  0  0  0  0  0  0  0  0
   -8.0946    2.9561    0.0000 H   0  0  0  0  0  0  0  0  0  0  0  0
   -9.0507    3.8048    0.0000 H   0  0  0  0  0  0  0  0  0  0  0  0
   -5.2227    5.2552    0.0000 H   0  0  0  0  0  0  0  0  0  0  0  0
   -6.2287    5.6962    0.0000 H   0  0  0  0  0  0  0  0  0  0  0  0
   -3.8466    3.9008    0.0000 H   0  0  0  0  0  0  0  0  0  0  0  0
   -3.8990    4.8650    0.0000 H   0  0  0  0  0  0  0  0  0  0  0  0
   -4.5165    1.9797    0.0000 H   0  0  0  0  0  0  0  0  0  0  0  0
   -3.4280    2.6333    0.0000 H   0  0  0  0  0  0  0  0  0  0  0  0
   -2.2716    1.1415    0.0000 H   0  0  0  0  0  0  0  0  0  0  0  0
   -2.6657    1.7771    0.0000 H   0  0  0  0  0  0  0  0  0  0  0  0
   -3.4507    1.5822    0.0000 H   0  0  0  0  0  0  0  0  0  0  0  0
   -3.6198    0.7244    0.0000 H   0  0  0  0  0  0  0  0  0  0  0  0
   -3.9024    0.7191    0.0000 H   0  0  0  0  0  0  0  0  0  0  0  0
   -4.3630   -0.0311    0.0000 H   0  0  0  0  0  0  0  0  0  0  0  0
   -1.0747    1.7576    0.0000 H   0  0  0  0  0  0  0  0  0  0  0  0
   -1.6258    1.6233    0.0000 H   0  0  0  0  0  0  0  0  0  0  0  0
    0.2300    1.4355    0.0000 H   0  0  0  0  0  0  0  0  0  0  0  0
   -0.2609    1.7835    0.0000 H   0  0  0  0  0  0  0  0  0  0  0  0
    1.2535    2.4501    0.0000 H   0  0  0  0  0  0  0  0  0  0  0  0
    1.4800    2.6459    0.0000 H   0  0  0  0  0  0  0  0  0  0  0  0
    1.9847    2.2862    0.0000 H   0  0  0  0  0  0  0  0  0  0  0  0
    2.8443   -3.2458    0.0000 H   0  0  0  0  0  0  0  0  0  0  0  0
    2.2554   -3.1651    0.0000 H   0  0  0  0  0  0  0  0  0  0  0  0
    2.2539   -2.4718    0.0000 H   0  0  0  0  0  0  0  0  0  0  0  0
    4.3417   -3.7693    0.0000 H   0  0  0  0  0  0  0  0  0  0  0  0
    4.1124   -4.2522    0.0000 H   0  0  0  0  0  0  0  0  0  0  0  0
    2.3518   -4.2129    0.0000 H   0  0  0  0  0  0  0  0  0  0  0  0
    2.2071   -4.7973    0.0000 H   0  0  0  0  0  0  0  0  0  0  0  0
    3.5824   -5.9130    0.0000 H   0  0  0  0  0  0  0  0  0  0  0  0
    0.9097   -6.4387    0.0000 H   0  0  0  0  0  0  0  0  0  0  0  0
    0.5331   -5.9135    0.0000 H   0  0  0  0  0  0  0  0  0  0  0  0
    1.1089   -5.2013    0.0000 H   0  0  0  0  0  0  0  0  0  0  0  0
    2.8231   -7.2543    0.0000 H   0  0  0  0  0  0  0  0  0  0  0  0
    2.5190   -7.8330    0.0000 H   0  0  0  0  0  0  0  0  0  0  0  0
    1.6258   -7.6319    0.0000 H   0  0  0  0  0  0  0  0  0  0  0  0
    3.9679   -1.3008    0.0000 H   0  0  0  0  0  0  0  0  0  0  0  0
    6.6480    0.1098    0.0000 H   0  0  0  0  0  0  0  0  0  0  0  0
    4.7592   -0.0360    0.0000 H   0  0  0  0  0  0  0  0  0  0  0  0
    4.8175    0.7778    0.0000 H   0  0  0  0  0  0  0  0  0  0  0  0
    4.4022    1.7581    0.0000 H   0  0  0  0  0  0  0  0  0  0  0  0
    3.7277    4.7980    0.0000 H   0  0  0  0  0  0  0  0  0  0  0  0
    3.1511    3.0896    0.0000 H   0  0  0  0  0  0  0  0  0  0  0  0
    2.5554    3.3741    0.0000 H   0  0  0  0  0  0  0  0  0  0  0  0
    1.8713    4.4954    0.0000 H   0  0  0  0  0  0  0  0  0  0  0  0
    5.6664    5.1038    0.0000 H   0  0  0  0  0  0  0  0  0  0  0  0
    4.7679    5.6962    0.0000 H   0  0  0  0  0  0  0  0  0  0  0  0
    6.9354    3.6176    0.0000 H   0  0  0  0  0  0  0  0  0  0  0  0
    6.9672    4.6637    0.0000 H   0  0  0  0  0  0  0  0  0  0  0  0
    6.2868    1.7844    0.0000 H   0  0  0  0  0  0  0  0  0  0  0  0
    7.1568    2.2428    0.0000 H   0  0  0  0  0  0  0  0  0  0  0  0
    7.6568   -1.5964    0.0000 H   0  0  0  0  0  0  0  0  0  0  0  0
    7.8466   -0.5381    0.0000 H   0  0  0  0  0  0  0  0  0  0  0  0
    6.6514   -3.2511    0.0000 H   0  0  0  0  0  0  0  0  0  0  0  0
    7.5937   -2.9820    0.0000 H   0  0  0  0  0  0  0  0  0  0  0  0
    4.6830   -2.9800    0.0000 H   0  0  0  0  0  0  0  0  0  0  0  0
    5.4963   -4.0319    0.0000 H   0  0  0  0  0  0  0  0  0  0  0  0
  1  2  1  1
  2  3  1  0
  3  4  1  0
  4  5  1  0
  5  6  1  1
  5  7  1  0
  7  8  1  6
  7  9  1  0
  9 10  1  0
  9 11  1  0
 11 12  1  0
 12 13  1  1
 12 14  1  0
 14 15  1  6
 14 16  1  0
 16 17  1  0
 17 18  1  0
 18 19  1  0
 19 20  1  0
 20 21  1  0
 21 22  1  0
 22 23  1  0
 23 24  1  0
 22 25  1  0
 25 26  1  0
 25 27  1  0
 27 28  1  0
 27 29  1  0
 29 30  1  0
 30 31  1  0
 31 32  1  0
 32 33  1  0
 33 34  1  0
 34 35  1  0
 33 36  1  0
 36 37  1  0
 36 38  1  0
 38 39  1  0
 38 40  1  0
 40 41  1  0
 18 42  1  0
 42 43  1  0
 42 44  1  0
 42 45  1  0
 45 46  1  1
 45 47  1  0
 47 48  1  0
 48 49  1  0
 49 50  1  6
  2 51  1  0
 51 52  1  0
 51 53  1  0
 53 54  1  0
 54 55  1  0
 55 56  2  3
 56 57  1  0
 56 58  1  0
 51 59  1  0
 59 60  1  0
 60 61  1  0
 61 62  1  0
 62 63  1  0
 63 64  1  0
 64 65  1  0
 65 66  1  0
 66 67  1  0
 67 68  1  0
 68 69  1  0
 67 70  1  0
 70 71  1  0
 70 72  1  0
 72 73  1  0
 72 74  1  0
 74 75  1  0
 62 76  1  0
 76 77  1  0
 76 78  1  0
 78 79  1  0
 78 80  1  0
 80 81  1  0
  7  2  1  0
 49 12  1  0
 80 60  1  0
 49  5  1  0
 74 65  1  0
 45 14  1  0
 29 20  1  0
 40 31  1  0
  3 82  1  0
  3 83  1  0
  4 84  1  0
  4 85  1  0
  6 86  1  0
  6 87  1  0
  6 88  1  0
  9 89  1  1
 10 90  1  0
 11 91  1  0
 11 92  1  0
 15 93  1  0
 15 94  1  0
 15 95  1  0
 16 96  1  0
 16 97  1  0
 17 98  1  0
 17 99  1  0
 18100  1  1
 20101  1  1
 22102  1  1
 23103  1  0
 23104  1  0
 24105  1  0
 25106  1  6
 26107  1  0
 27108  1  1
 28109  1  0
 29110  1  6
 31111  1  1
 33112  1  1
 34113  1  0
 34114  1  0
 35115  1  0
 36116  1  6
 37117  1  0
 38118  1  1
 39119  1  0
 40120  1  6
 41121  1  0
 43122  1  0
 43123  1  0
 43124  1  0
 44125  1  0
 44126  1  0
 44127  1  0
 47128  1  0
 47129  1  0
 48130  1  0
 48131  1  0
 50132  1  0
 50133  1  0
 50134  1  0
 52135  1  0
 52136  1  0
 52137  1  0
 53138  1  0
 53139  1  0
 54140  1  0
 54141  1  0
 55142  1  0
 57143  1  0
 57144  1  0
 57145  1  0
 58146  1  0
 58147  1  0
 58148  1  0
 60149  1  1
 62150  1  1
 63151  1  0
 63152  1  0
 65153  1  1
 67154  1  1
 68155  1  0
 68156  1  0
 69157  1  0
 70158  1  6
 71159  1  0
 72160  1  1
 73161  1  0
 74162  1  6
 75163  1  0
 76164  1  6
 77165  1  0
 78166  1  1
 79167  1  0
 80168  1  6
 81169  1  0
M  END
$$$$
