Created with the Wolfram Language for Students - Personal Use Only : www.wolfram.com
     WL             2D

128133  0  0  0  0  0  0  0  0999 V2000
    4.4920   -3.7668    0.0000 C   0  0  0  0  0  0  0  0  0  0  0  0
    5.3337   -3.1743    0.0000 C   0  0  0  0  0  0  0  0  0  0  0  0
    6.2328   -3.6293    0.0000 C   0  0  0  0  0  0  0  0  0  0  0  0
    5.2406   -2.1255    0.0000 C   0  0  0  0  0  0  0  0  0  0  0  0
    4.3059   -1.7437    0.0000 C   0  0  0  0  0  0  0  0  0  0  0  0
    4.0078   -0.4454    0.0000 C   0  0  0  0  0  0  0  0  0  0  0  0
    2.9998    0.4022    0.0000 C   0  0  0  0  0  0  0  0  0  0  0  0
    2.5836   -0.9446    0.0000 C   0  0  0  0  0  0  0  0  0  0  0  0
    3.9956    1.1997    0.0000 O   0  0  0  0  0  0  0  0  0  0  0  0
    5.3804    0.9866    0.0000 C   0  0  0  0  0  0  0  0  0  0  0  0
    6.3098    0.4357    0.0000 O   0  0  0  0  0  0  0  0  0  0  0  0
    7.1988    0.9707    0.0000 C   0  0  0  0  0  0  0  0  0  0  0  0
    7.5497    0.0274    0.0000 C   0  0  0  0  0  0  0  0  0  0  0  0
    8.5409   -0.1333    0.0000 O   0  0  0  0  0  0  0  0  0  0  0  0
    7.2062    2.0194    0.0000 C   0  0  0  0  0  0  0  0  0  0  0  0
    8.1578    1.9001    0.0000 O   0  0  0  0  0  0  0  0  0  0  0  0
    6.2633    2.5387    0.0000 C   0  0  0  0  0  0  0  0  0  0  0  0
    6.8430    3.3148    0.0000 O   0  0  0  0  0  0  0  0  0  0  0  0
    5.3556    2.0320    0.0000 C   0  0  0  0  0  0  0  0  0  0  0  0
    4.9914    2.8980    0.0000 O   0  0  0  0  0  0  0  0  0  0  0  0
    1.4547    2.0001    0.0000 C   0  0  0  0  0  0  0  0  0  0  0  0
    0.9628    2.8941    0.0000 C   0  0  0  0  0  0  0  0  0  0  0  0
   -0.0993    2.7128    0.0000 C   0  0  0  0  0  0  0  0  0  0  0  0
   -0.2414    1.6827    0.0000 C   0  0  0  0  0  0  0  0  0  0  0  0
   -1.6251    2.3078    0.0000 C   0  0  0  0  0  0  0  0  0  0  0  0
    0.6975    1.2195    0.0000 C   0  0  0  0  0  0  0  0  0  0  0  0
    0.8424    0.0832    0.0000 C   0  0  0  0  0  0  0  0  0  0  0  0
    1.3652   -0.7361    0.0000 O   0  0  0  0  0  0  0  0  0  0  0  0
   -0.0567   -0.7277    0.0000 C   0  0  0  0  0  0  0  0  0  0  0  0
   -1.0986   -0.4280    0.0000 C   0  0  0  0  0  0  0  0  0  0  0  0
   -1.9743   -1.4474    0.0000 C   0  0  0  0  0  0  0  0  0  0  0  0
   -0.2549   -2.2782    0.0000 C   0  0  0  0  0  0  0  0  0  0  0  0
   -1.5604   -2.6057    0.0000 C   0  0  0  0  0  0  0  0  0  0  0  0
   -2.3408   -3.5060    0.0000 C   0  0  0  0  0  0  0  0  0  0  0  0
   -3.3970   -3.3378    0.0000 C   0  0  0  0  0  0  0  0  0  0  0  0
   -4.1523   -3.5446    0.0000 O   0  0  0  0  0  0  0  0  0  0  0  0
   -3.7688   -2.2152    0.0000 C   0  0  0  0  0  0  0  0  0  0  0  0
   -4.6896   -1.3725    0.0000 C   0  0  0  0  0  0  0  0  0  0  0  0
   -4.8626   -2.8972    0.0000 C   0  0  0  0  0  0  0  0  0  0  0  0
   -2.9932   -1.2439    0.0000 C   0  0  0  0  0  0  0  0  0  0  0  0
   -3.4599    0.0550    0.0000 C   0  0  0  0  0  0  0  0  0  0  0  0
   -2.6072    1.0011    0.0000 C   0  0  0  0  0  0  0  0  0  0  0  0
   -1.3908    0.7369    0.0000 C   0  0  0  0  0  0  0  0  0  0  0  0
   -2.3661    2.3939    0.0000 C   0  0  0  0  0  0  0  0  0  0  0  0
   -4.1531    0.9052    0.0000 O   0  0  0  0  0  0  0  0  0  0  0  0
   -5.4241    0.8648    0.0000 C   0  0  0  0  0  0  0  0  0  0  0  0
   -6.3448    0.4135    0.0000 O   0  0  0  0  0  0  0  0  0  0  0  0
   -7.1821    1.0231    0.0000 C   0  0  0  0  0  0  0  0  0  0  0  0
   -7.5697    0.0506    0.0000 C   0  0  0  0  0  0  0  0  0  0  0  0
   -8.5480   -0.1181    0.0000 O   0  0  0  0  0  0  0  0  0  0  0  0
   -7.1100    2.0926    0.0000 C   0  0  0  0  0  0  0  0  0  0  0  0
   -8.0771    1.9987    0.0000 O   0  0  0  0  0  0  0  0  0  0  0  0
   -6.1731    2.5167    0.0000 C   0  0  0  0  0  0  0  0  0  0  0  0
   -6.6890    3.3399    0.0000 O   0  0  0  0  0  0  0  0  0  0  0  0
   -5.3146    1.9316    0.0000 C   0  0  0  0  0  0  0  0  0  0  0  0
   -4.9031    2.7134    0.0000 O   0  0  0  0  0  0  0  0  0  0  0  0
    4.8658   -4.2986    0.0000 H   0  0  0  0  0  0  0  0  0  0  0  0
    4.2215   -4.3578    0.0000 H   0  0  0  0  0  0  0  0  0  0  0  0
    3.8986   -3.5013    0.0000 H   0  0  0  0  0  0  0  0  0  0  0  0
    6.5340   -3.0532    0.0000 H   0  0  0  0  0  0  0  0  0  0  0  0
    6.8824   -3.6062    0.0000 H   0  0  0  0  0  0  0  0  0  0  0  0
    6.2605   -4.2787    0.0000 H   0  0  0  0  0  0  0  0  0  0  0  0
    5.7635   -1.7394    0.0000 H   0  0  0  0  0  0  0  0  0  0  0  0
    3.6980   -1.9738    0.0000 H   0  0  0  0  0  0  0  0  0  0  0  0
    4.1333   -2.3704    0.0000 H   0  0  0  0  0  0  0  0  0  0  0  0
    4.3215    0.1238    0.0000 H   0  0  0  0  0  0  0  0  0  0  0  0
    4.6572   -0.4186    0.0000 H   0  0  0  0  0  0  0  0  0  0  0  0
    3.2085   -1.1236    0.0000 H   0  0  0  0  0  0  0  0  0  0  0  0
    2.8671   -1.5295    0.0000 H   0  0  0  0  0  0  0  0  0  0  0  0
    2.0532   -1.3204    0.0000 H   0  0  0  0  0  0  0  0  0  0  0  0
    5.2556    0.2132    0.0000 H   0  0  0  0  0  0  0  0  0  0  0  0
    8.2129    1.0990    0.0000 H   0  0  0  0  0  0  0  0  0  0  0  0
    6.9404   -0.1992    0.0000 H   0  0  0  0  0  0  0  0  0  0  0  0
    7.4450   -0.6141    0.0000 H   0  0  0  0  0  0  0  0  0  0  0  0
    8.7753   -0.7396    0.0000 H   0  0  0  0  0  0  0  0  0  0  0  0
    7.5710    2.9584    0.0000 H   0  0  0  0  0  0  0  0  0  0  0  0
    8.5309    2.4323    0.0000 H   0  0  0  0  0  0  0  0  0  0  0  0
    5.6485    3.3672    0.0000 H   0  0  0  0  0  0  0  0  0  0  0  0
    6.5732    3.9062    0.0000 H   0  0  0  0  0  0  0  0  0  0  0  0
    4.4006    1.9392    0.0000 H   0  0  0  0  0  0  0  0  0  0  0  0
    4.3432    2.9457    0.0000 H   0  0  0  0  0  0  0  0  0  0  0  0
    2.2577    2.5765    0.0000 H   0  0  0  0  0  0  0  0  0  0  0  0
    1.5611    3.1481    0.0000 H   0  0  0  0  0  0  0  0  0  0  0  0
    0.7812    3.5183    0.0000 H   0  0  0  0  0  0  0  0  0  0  0  0
   -0.2592    3.3428    0.0000 H   0  0  0  0  0  0  0  0  0  0  0  0
   -0.5104    2.5595    0.0000 H   0  0  0  0  0  0  0  0  0  0  0  0
   -1.4644    2.9376    0.0000 H   0  0  0  0  0  0  0  0  0  0  0  0
   -1.2559    2.8427    0.0000 H   0  0  0  0  0  0  0  0  0  0  0  0
   -1.2258    1.7774    0.0000 H   0  0  0  0  0  0  0  0  0  0  0  0
    1.3524    1.0660    0.0000 H   0  0  0  0  0  0  0  0  0  0  0  0
    1.5494    0.2976    0.0000 H   0  0  0  0  0  0  0  0  0  0  0  0
    1.9388   -0.4304    0.0000 H   0  0  0  0  0  0  0  0  0  0  0  0
   -0.2774   -1.3012    0.0000 H   0  0  0  0  0  0  0  0  0  0  0  0
    0.5306   -1.0062    0.0000 H   0  0  0  0  0  0  0  0  0  0  0  0
   -1.0462   -1.0984    0.0000 H   0  0  0  0  0  0  0  0  0  0  0  0
    0.2707   -1.8957    0.0000 H   0  0  0  0  0  0  0  0  0  0  0  0
    0.3886   -2.3695    0.0000 H   0  0  0  0  0  0  0  0  0  0  0  0
   -0.1673   -2.9222    0.0000 H   0  0  0  0  0  0  0  0  0  0  0  0
   -1.2462   -3.1747    0.0000 H   0  0  0  0  0  0  0  0  0  0  0  0
   -1.0022   -2.6639    0.0000 H   0  0  0  0  0  0  0  0  0  0  0  0
   -2.5412   -4.1243    0.0000 H   0  0  0  0  0  0  0  0  0  0  0  0
   -1.8239   -3.9001    0.0000 H   0  0  0  0  0  0  0  0  0  0  0  0
   -3.4288   -4.3097    0.0000 H   0  0  0  0  0  0  0  0  0  0  0  0
   -4.2429   -4.1883    0.0000 H   0  0  0  0  0  0  0  0  0  0  0  0
   -4.2406   -0.9024    0.0000 H   0  0  0  0  0  0  0  0  0  0  0  0
   -4.7664   -0.6655    0.0000 H   0  0  0  0  0  0  0  0  0  0  0  0
   -5.3362   -1.4392    0.0000 H   0  0  0  0  0  0  0  0  0  0  0  0
   -5.2484   -2.3740    0.0000 H   0  0  0  0  0  0  0  0  0  0  0  0
   -5.5125   -2.8839    0.0000 H   0  0  0  0  0  0  0  0  0  0  0  0
   -4.9533   -3.5408    0.0000 H   0  0  0  0  0  0  0  0  0  0  0  0
   -3.6024   -1.4235    0.0000 H   0  0  0  0  0  0  0  0  0  0  0  0
   -4.3211   -0.0215    0.0000 H   0  0  0  0  0  0  0  0  0  0  0  0
   -2.6512    1.4954    0.0000 H   0  0  0  0  0  0  0  0  0  0  0  0
   -3.2070    1.2516    0.0000 H   0  0  0  0  0  0  0  0  0  0  0  0
   -2.9978    2.2408    0.0000 H   0  0  0  0  0  0  0  0  0  0  0  0
   -2.9017    2.7622    0.0000 H   0  0  0  0  0  0  0  0  0  0  0  0
   -2.2324    3.0301    0.0000 H   0  0  0  0  0  0  0  0  0  0  0  0
   -5.3766   -0.1509    0.0000 H   0  0  0  0  0  0  0  0  0  0  0  0
   -8.1819    1.2062    0.0000 H   0  0  0  0  0  0  0  0  0  0  0  0
   -6.9689   -0.1976    0.0000 H   0  0  0  0  0  0  0  0  0  0  0  0
   -7.4684   -0.5915    0.0000 H   0  0  0  0  0  0  0  0  0  0  0  0
   -8.7648   -0.7309    0.0000 H   0  0  0  0  0  0  0  0  0  0  0  0
   -7.4334    3.0487    0.0000 H   0  0  0  0  0  0  0  0  0  0  0  0
   -8.4433    2.5358    0.0000 H   0  0  0  0  0  0  0  0  0  0  0  0
   -5.4828    3.2759    0.0000 H   0  0  0  0  0  0  0  0  0  0  0  0
   -6.3698    3.9062    0.0000 H   0  0  0  0  0  0  0  0  0  0  0  0
   -4.3689    1.7080    0.0000 H   0  0  0  0  0  0  0  0  0  0  0  0
   -4.2541    2.6767    0.0000 H   0  0  0  0  0  0  0  0  0  0  0  0
  1  2  1  0
  2  3  1  0
  2  4  2  3
  4  5  1  0
  5  6  1  0
  6  7  1  0
  7  8  1  0
  7  9  1  6
  9 10  1  0
 10 11  1  0
 11 12  1  0
 12 13  1  0
 13 14  1  0
 12 15  1  0
 15 16  1  0
 15 17  1  0
 17 18  1  0
 17 19  1  0
 19 20  1  0
  7 21  1  0
 21 22  1  0
 22 23  1  0
 23 24  1  0
 24 25  1  1
 24 26  1  0
 26 27  1  0
 27 28  1  0
 27 29  1  0
 29 30  1  0
 30 31  1  0
 31 32  1  6
 31 33  1  0
 33 34  1  0
 34 35  1  0
 35 36  1  0
 35 37  1  0
 37 38  1  0
 37 39  1  0
 37 40  1  0
 40 41  1  0
 41 42  1  0
 42 43  1  0
 43 44  1  6
 41 45  1  0
 45 46  1  0
 46 47  1  0
 47 48  1  0
 48 49  1  0
 49 50  1  0
 48 51  1  0
 51 52  1  0
 51 53  1  0
 53 54  1  0
 53 55  1  0
 55 56  1  0
 19 10  1  0
 26 21  1  0
 43 30  1  0
 55 46  1  0
 43 24  1  0
 40 31  1  0
  1 57  1  0
  1 58  1  0
  1 59  1  0
  3 60  1  0
  3 61  1  0
  3 62  1  0
  4 63  1  0
  5 64  1  0
  5 65  1  0
  6 66  1  0
  6 67  1  0
  8 68  1  0
  8 69  1  0
  8 70  1  0
 10 71  1  6
 12 72  1  6
 13 73  1  0
 13 74  1  0
 14 75  1  0
 15 76  1  1
 16 77  1  0
 17 78  1  6
 18 79  1  0
 19 80  1  1
 20 81  1  0
 21 82  1  1
 22 83  1  0
 22 84  1  0
 23 85  1  0
 23 86  1  0
 25 87  1  0
 25 88  1  0
 25 89  1  0
 26 90  1  6
 27 91  1  1
 28 92  1  0
 29 93  1  0
 29 94  1  0
 30 95  1  1
 32 96  1  0
 32 97  1  0
 32 98  1  0
 33 99  1  0
 33100  1  0
 34101  1  0
 34102  1  0
 35103  1  1
 36104  1  0
 38105  1  0
 38106  1  0
 38107  1  0
 39108  1  0
 39109  1  0
 39110  1  0
 40111  1  1
 41112  1  6
 42113  1  0
 42114  1  0
 44115  1  0
 44116  1  0
 44117  1  0
 46118  1  1
 48119  1  1
 49120  1  0
 49121  1  0
 50122  1  0
 51123  1  6
 52124  1  0
 53125  1  1
 54126  1  0
 55127  1  6
 56128  1  0
M  END
$$$$
