Created with the Wolfram Language for Students - Personal Use Only : www.wolfram.com
     WL             3D

 13 12  0  0  0  0  0  0  0  0999 V2000
    1.3130    1.2930   -0.4280 C   0  0  0  0  0  0  0  0  0  0  0  0
    0.7437    0.1520    0.4038 C   0  0  2  0  0  0  0  0  0  0  0  0
    1.5590   -1.0642    0.1838 N   0  0  0  0  0  0  0  0  0  0  0  0
   -0.7190   -0.1176    0.0358 C   0  0  0  0  0  0  0  0  0  0  0  0
   -1.5257    0.9412    0.2447 O   0  0  0  0  0  0  0  0  0  0  0  0
   -1.1795   -1.1715   -0.3781 O   0  0  0  0  0  0  0  0  0  0  0  0
    1.2355    1.0847   -1.5014 H   0  0  0  0  0  0  0  0  0  0  0  0
    2.3673    1.4691   -0.1881 H   0  0  0  0  0  0  0  0  0  0  0  0
    0.7701    2.2251   -0.2371 H   0  0  0  0  0  0  0  0  0  0  0  0
    0.7833    0.3982    1.4703 H   0  0  0  0  0  0  0  0  0  0  0  0
    1.1172   -1.8355    0.6898 H   0  0  0  0  0  0  0  0  0  0  0  0
    1.4747   -1.3337   -0.7988 H   0  0  0  0  0  0  0  0  0  0  0  0
   -2.4149    0.6182   -0.0123 H   0  0  0  0  0  0  0  0  0  0  0  0
  1  2  1  0
  2  3  1  0
  2  4  1  0
  4  5  1  0
  4  6  2  0
  1  7  1  0
  1  8  1  0
  1  9  1  0
  2 10  1  1
  3 11  1  0
  3 12  1  0
  5 13  1  0
M  END
$$$$
